@<TRIPOS>MOLECULE
sys
    4     2     2     0     1 
SMALL
USER_CHARGES
@<TRIPOS>ATOM
  1 O       0.000000    0.000000    0.000000 OW    1 WAT    -0.7000 ****
  2 H1      1.000000    0.000000    0.000000 HW    1 WAT     0.3000 ****
  3 H2     -0.333808    0.942641    0.000000 HW    1 WAT     0.3000 ****
  4 Ne     -0.222222   -2.370370    0.000000 NE    2 NEO     0.1000 ****
@<TRIPOS>BOND
    1     1     2 1
    2     1     3 1
@<TRIPOS>SUBSTRUCTURE
      1  WAT              1 ****               0 ****  **** 
      2  NEO              1 ****               0 ****  **** 
