@<TRIPOS>MOLECULE
sys
    3     2     1     0     1 
SMALL
USER_CHARGES
@<TRIPOS>ATOM
  1 OW      0.000000    0.000000    0.000000 OW    1 WAT    -0.7000 ****
  2 H1      1.000000    0.000000    0.000000 HW    1 WAT     0.3000 ****
  3 H2     -0.333808    0.942641    0.000000 HW    1 WAT     0.3000 ****
@<TRIPOS>BOND
    1     1     2 1
    2     1     3 1
@<TRIPOS>SUBSTRUCTURE
      1  WAT              1 ****               0 ****  **** 
