@<TRIPOS>MOLECULE
UNL
   45    44     1     0     0
SMALL
bcc


@<TRIPOS>ATOM
      1 C1           2.2330     2.0580     3.1010 c3         1 UNL       0.075800
      2 N1           2.2010     1.5260     1.7630 n          1 UNL      -0.560900
      3 C2           2.7960     0.3210     1.4560 c          1 UNL       0.637600
      4 O1           3.4470    -0.3350     2.2710 o          1 UNL      -0.620100
      5 C3           2.5780    -0.1690     0.0090 c3         1 UNL       0.039200
      6 C4           1.2560    -0.9370    -0.1480 c3         1 UNL      -0.090400
      7 C5           0.0270    -0.0400    -0.0040 c3         1 UNL      -0.087400
      8 C6          -1.2710    -0.7620    -0.3720 c3         1 UNL      -0.090400
      9 C7          -2.5200     0.0760    -0.0530 c3         1 UNL       0.039200
     10 N2          -2.6020     1.2840    -0.8720 n          1 UNL      -0.562900
     11 C8          -2.1070     2.4950    -0.4620 c          1 UNL       0.662600
     12 C9          -2.4160     3.6380    -1.3910 c3         1 UNL      -0.173600
     13 O2          -1.4560     2.6500     0.5670 o          1 UNL      -0.622100
     14 C10         -3.8000    -0.7440    -0.3220 c          1 UNL       0.637600
     15 O3          -4.5620    -0.4790    -1.2520 o          1 UNL      -0.620100
     16 N3          -4.0060    -1.7940     0.5480 n          1 UNL      -0.560900
     17 C11         -5.2010    -2.5960     0.4680 c3         1 UNL       0.075800
     18 N4           3.7090    -1.0380    -0.3090 n          1 UNL      -0.562900
     19 C12          4.1230    -1.2650    -1.5950 c          1 UNL       0.662600
     20 C13          5.3230    -2.1640    -1.7140 c3         1 UNL      -0.173600
     21 O4           3.5690    -0.7830    -2.5770 o          1 UNL      -0.622100
     22 H1           1.4710     1.5480     3.6970 h1         1 UNL       0.046533
     23 H2           2.0120     3.1270     3.0560 h1         1 UNL       0.046533
     24 H3           3.2160     1.8980     3.5520 h1         1 UNL       0.046533
     25 H4           1.5490     1.9440     1.1080 hn         1 UNL       0.319000
     26 H5           2.6100     0.6910    -0.6700 h1         1 UNL       0.093700
     27 H6           1.2300    -1.4170    -1.1340 hc         1 UNL       0.057700
     28 H7           1.2030    -1.7460     0.5920 hc         1 UNL       0.057700
     29 H8           0.1530     0.8380    -0.6470 hc         1 UNL       0.055200
     30 H9          -0.0510     0.3070     1.0320 hc         1 UNL       0.055200
     31 H10         -1.3160    -1.7110     0.1750 hc         1 UNL       0.057700
     32 H11         -1.2560    -1.0190    -1.4390 hc         1 UNL       0.057700
     33 H12         -2.5250     0.3690     1.0040 h1         1 UNL       0.093700
     34 H13         -3.2620     1.2440    -1.6450 hn         1 UNL       0.329000
     35 H14         -3.0790     4.3430    -0.8810 hc         1 UNL       0.069200
     36 H15         -1.4830     4.1380    -1.6630 hc         1 UNL       0.069200
     37 H16         -2.9040     3.2970    -2.3080 hc         1 UNL       0.069200
     38 H17         -3.4690    -1.8270     1.4050 hn         1 UNL       0.319000
     39 H18         -5.4380    -2.8230    -0.5750 h1         1 UNL       0.046533
     40 H19         -6.0280    -2.0380     0.9160 h1         1 UNL       0.046533
     41 H20         -5.0360    -3.5230     1.0230 h1         1 UNL       0.046533
     42 H21          4.2180    -1.4240     0.4810 hn         1 UNL       0.329000
     43 H22          5.6630    -2.5210    -0.7380 hc         1 UNL       0.069200
     44 H23          6.1390    -1.6100    -2.1860 hc         1 UNL       0.069200
     45 H24          5.0610    -3.0300    -2.3280 hc         1 UNL       0.069200
@<TRIPOS>BOND
     1     1     2 1   
     2     1    22 1   
     3     1    23 1   
     4     1    24 1   
     5     2     3 1   
     6     2    25 1   
     7     3     4 2   
     8     3     5 1   
     9     5     6 1   
    10     5    18 1   
    11     5    26 1   
    12     6     7 1   
    13     6    27 1   
    14     6    28 1   
    15     7     8 1   
    16     7    29 1   
    17     7    30 1   
    18     8     9 1   
    19     8    31 1   
    20     8    32 1   
    21     9    10 1   
    22     9    14 1   
    23     9    33 1   
    24    10    11 1   
    25    10    34 1   
    26    11    12 1   
    27    11    13 2   
    28    12    35 1   
    29    12    36 1   
    30    12    37 1   
    31    14    15 2   
    32    14    16 1   
    33    16    17 1   
    34    16    38 1   
    35    17    39 1   
    36    17    40 1   
    37    17    41 1   
    38    18    19 1   
    39    18    42 1   
    40    19    20 1   
    41    19    21 2   
    42    20    43 1   
    43    20    44 1   
    44    20    45 1   
@<TRIPOS>SUBSTRUCTURE
     1 UNL         1 TEMP              0 ****  ****    0 ROOT
