@<TRIPOS>MOLECULE								
MOL								
20	20	1	0	0				
SMALL								
No	Charge	or	Current	Charge				
@<TRIPOS>ATOM								
1	C1	-3.5200	1.0180	-0.3490	c3	1	MOL	-0.0574796410713743
2	C2	-2.3520	0.4580	-1.1630	c3	1	MOL	0.0502276851611604
3	C3	-1.5730	-0.6510	-0.4470	c3	1	MOL	0.029434866161889
4	C4	-0.7470	-0.1590	0.7610	c3	1	MOL	-0.1367489029942565
5	N1	0.6860	-0.1990	0.5240	na	1	MOL	0.3986932518358891
6	N2	1.2830	0.8030	-0.0880	nc	1	MOL	-0.2502196049522864
7	N3	2.5110	0.5130	-0.2390	nd	1	MOL	-0.3193359951280445
8	C5	2.7400	-0.7120	0.2810	cd	1	MOL	0.1155272094562996
9	C6	1.5640	-1.1830	0.7740	cc	1	MOL	-0.3665531218424377
10	H1	-4.0420	1.7890	-0.9060	hc	1	MOL	0.0130890605865177
11	H2	-3.1920	1.4620	0.5860	hc	1	MOL	0.0130890605865177
12	H3	-4.2380	0.2380	-0.1110	hc	1	MOL	0.0130890605865177
13	H4	-2.7360	0.0590	-2.0970	hc	1	MOL	-0.0014480429946745
14	H5	-1.6680	1.2590	-1.4290	hc	1	MOL	-0.0014480429946745
15	H6	-2.2730	-1.4130	-0.1120	hc	1	MOL	0.013903235081947
16	H7	-0.9020	-1.1340	-1.1480	hc	1	MOL	0.013903235081947
17	H8	-0.9840	0.8630	1.0160	h1	1	MOL	0.0718422229084886
18	H9	-0.9330	-0.7660	1.6370	h1	1	MOL	0.0718422229084886
19	H10	3.7100	-1.1590	0.2720	h4	1	MOL	0.1170117401835705
20	H11	1.2920	-2.0910	1.2660	h4	1	MOL	0.2115805014385151
@<TRIPOS>BOND								
1	1	2	1					
2	1	10	1					
3	1	11	1					
4	1	12	1					
5	2	3	1					
6	2	13	1					
7	2	14	1					
8	3	4	1					
9	3	15	1					
10	3	16	1					
11	4	5	1					
12	4	17	1					
13	4	18	1					
14	5	6	1					
15	5	9	1					
16	6	7	2					
17	7	8	1					
18	8	9	2					
19	8	19	1					
20	9	20	1					
@<TRIPOS>SUBSTRUCTURE								
1	MOL	1	TEMP	0	****	****	0	ROOT
