@<TRIPOS>MOLECULE								
MOL								
20	20	1	0	0				
SMALL								
No	Charge	or	Current	Charge				
@<TRIPOS>ATOM								
1	C1	-3.2560	1.1960	-0.4840	c3	1	MOL	-0.0574796410713743
2	C2	-2.1640	0.3900	-1.1890	c3	1	MOL	0.0502276851611604
3	C3	-1.6370	-0.7930	-0.3680	c3	1	MOL	0.029434866161889
4	C4	-0.7870	-0.3980	0.8490	c3	1	MOL	-0.1367489029942565
5	N1	0.6290	-0.2800	0.5400	na	1	MOL	0.3986932518358891
6	N2	1.1410	0.8800	0.1820	nc	1	MOL	-0.2502196049522864
7	N3	2.3740	0.7170	-0.0810	nd	1	MOL	-0.3193359951280445
8	C5	2.6930	-0.5830	0.1030	cd	1	MOL	0.1155272094562996
9	C6	1.5710	-1.2360	0.5020	cc	1	MOL	-0.3665531218424377
10	H1	-3.6110	1.9980	-1.1230	hc	1	MOL	0.0130890605865177
11	H2	-2.9010	1.6530	0.4350	hc	1	MOL	0.0130890605865177
12	H3	-4.1070	0.5680	-0.2360	hc	1	MOL	0.0130890605865177
13	H4	-2.5630	0.0050	-2.1230	hc	1	MOL	-0.0014480429946745
14	H5	-1.3370	1.0430	-1.4540	hc	1	MOL	-0.0014480429946745
15	H6	-2.4830	-1.3770	-0.0130	hc	1	MOL	0.013903235081947
16	H7	-1.0500	-1.4530	-0.9980	hc	1	MOL	0.013903235081947
17	H8	-1.0910	0.5500	1.2670	h1	1	MOL	0.0718422229084886
18	H9	-0.8730	-1.1440	1.6290	h1	1	MOL	0.0718422229084886
19	H10	3.6840	-0.9490	-0.0540	h4	1	MOL	0.1170117401835705
20	H11	1.3740	-2.2540	0.7580	h4	1	MOL	0.2115805014385151
@<TRIPOS>BOND								
1	1	2	1					
2	1	10	1					
3	1	11	1					
4	1	12	1					
5	2	3	1					
6	2	13	1					
7	2	14	1					
8	3	4	1					
9	3	15	1					
10	3	16	1					
11	4	5	1					
12	4	17	1					
13	4	18	1					
14	5	6	1					
15	5	9	1					
16	6	7	2					
17	7	8	1					
18	8	9	2					
19	8	19	1					
20	9	20	1					
@<TRIPOS>SUBSTRUCTURE								
1	MOL	1	TEMP	0	****	****	0	ROOT
