@<TRIPOS>MOLECULE								
MOL								
20	20	1	0	0				
SMALL								
No	Charge	or	Current	Charge				
@<TRIPOS>ATOM								
1	C1	-2.0640	0.9700	-0.8780	c3	1	MOL	-0.0574796410713743
2	C2	-1.9480	-0.5370	-1.1120	c3	1	MOL	0.0502276851611604
3	C3	-1.7020	-1.3730	0.1550	c3	1	MOL	0.029434866161889
4	C4	-0.2470	-1.5120	0.6480	c3	1	MOL	-0.1367489029942565
5	N1	0.6360	-0.3920	0.3720	na	1	MOL	0.3986932518358891
6	N2	0.7080	0.6180	1.2140	nc	1	MOL	-0.2502196049522864
7	N3	1.5290	1.4720	0.7560	nd	1	MOL	-0.3193359951280445
8	C5	2.0280	1.0170	-0.4150	cd	1	MOL	0.1155272094562996
9	C6	1.4570	-0.1890	-0.6710	cc	1	MOL	-0.3665531218424377
10	H1	-2.2870	1.4780	-1.8110	hc	1	MOL	0.0130890605865177
11	H2	-1.1580	1.4010	-0.4730	hc	1	MOL	0.0130890605865177
12	H3	-2.8710	1.1870	-0.1840	hc	1	MOL	0.0130890605865177
13	H4	-2.8780	-0.8840	-1.5550	hc	1	MOL	-0.0014480429946745
14	H5	-1.1770	-0.7390	-1.8520	hc	1	MOL	-0.0014480429946745
15	H6	-2.3020	-0.9540	0.9580	hc	1	MOL	0.013903235081947
16	H7	-2.0680	-2.3840	0.0010	hc	1	MOL	0.013903235081947
17	H8	-0.2240	-1.6730	1.7150	h1	1	MOL	0.0718422229084886
18	H9	0.2130	-2.3730	0.1780	h1	1	MOL	0.0718422229084886
19	H10	2.7480	1.5710	-0.9760	h4	1	MOL	0.1170117401835705
20	H11	1.5660	-0.8900	-1.4690	h4	1	MOL	0.2115805014385151
@<TRIPOS>BOND								
1	1	2	1					
2	1	10	1					
3	1	11	1					
4	1	12	1					
5	2	3	1					
6	2	13	1					
7	2	14	1					
8	3	4	1					
9	3	15	1					
10	3	16	1					
11	4	5	1					
12	4	17	1					
13	4	18	1					
14	5	6	1					
15	5	9	1					
16	6	7	2					
17	7	8	1					
18	8	9	2					
19	8	19	1					
20	9	20	1					
@<TRIPOS>SUBSTRUCTURE								
1	MOL	1	TEMP	0	****	****	0	ROOT
