@<TRIPOS>MOLECULE								
MOL								
20	20	1	0	0				
SMALL								
No	Charge	or	Current	Charge				
@<TRIPOS>ATOM								
1	C1	-2.3920	1.2380	-0.5280	c3	1	MOL	-0.0574796410713743
2	C2	-1.9170	-0.1040	-1.0900	c3	1	MOL	0.0502276851611604
3	C3	-1.7720	-1.2100	-0.0390	c3	1	MOL	0.029434866161889
4	C4	-0.6160	-1.0650	0.9720	c3	1	MOL	-0.1367489029942565
5	N1	0.5620	-0.3780	0.4690	na	1	MOL	0.3986932518358891
6	N2	0.8250	0.8600	0.8360	nc	1	MOL	-0.2502196049522864
7	N3	1.8960	1.2350	0.2680	nd	1	MOL	-0.3193359951280445
8	C5	2.3640	0.2250	-0.4980	cd	1	MOL	0.1155272094562996
9	C6	1.5100	-0.8230	-0.3710	cc	1	MOL	-0.3665531218424377
10	H1	-2.5050	1.9680	-1.3230	hc	1	MOL	0.0130890605865177
11	H2	-1.6910	1.6430	0.1920	hc	1	MOL	0.0130890605865177
12	H3	-3.3580	1.1310	-0.0390	hc	1	MOL	0.0130890605865177
13	H4	-2.6350	-0.4500	-1.8290	hc	1	MOL	-0.0014480429946745
14	H5	-0.9790	0.0290	-1.6180	hc	1	MOL	-0.0014480429946745
15	H6	-2.6920	-1.3030	0.5320	hc	1	MOL	0.013903235081947
16	H7	-1.6490	-2.1540	-0.5640	hc	1	MOL	0.013903235081947
17	H8	-0.9260	-0.4840	1.8270	h1	1	MOL	0.0718422229084886
18	H9	-0.3120	-2.0400	1.3320	h1	1	MOL	0.0718422229084886
19	H10	3.2630	0.3170	-1.0670	h4	1	MOL	0.1170117401835705
20	H11	1.4990	-1.8070	-0.7890	h4	1	MOL	0.2115805014385151
@<TRIPOS>BOND								
1	1	2	1					
2	1	10	1					
3	1	11	1					
4	1	12	1					
5	2	3	1					
6	2	13	1					
7	2	14	1					
8	3	4	1					
9	3	15	1					
10	3	16	1					
11	4	5	1					
12	4	17	1					
13	4	18	1					
14	5	6	1					
15	5	9	1					
16	6	7	2					
17	7	8	1					
18	8	9	2					
19	8	19	1					
20	9	20	1					
@<TRIPOS>SUBSTRUCTURE								
1	MOL	1	TEMP	0	****	****	0	ROOT
