@<TRIPOS>MOLECULE
MOL
   20    22     1     0     0
SMALL
No Charge or Current Charge


@<TRIPOS>ATOM
      1 C1          -2.3050     1.2480    -0.5840 c3         1 MOL       0.000000
      2 C2          -1.9230    -0.1430    -1.0940 c3         1 MOL       0.000000
      3 C3          -1.8110    -1.2070     0.0060 c3         1 MOL       0.000000
      4 C4          -0.5860    -1.1340     0.9500 c3         1 MOL       0.000000
      5 N1           0.5590    -0.3900     0.4520 n3         1 MOL       0.000000
      6 N2           0.8260     0.8160     0.9110 n3         1 MOL       0.000000
      7 N3           1.8770     1.2470     0.3440 n3         1 MOL       0.000000
      8 C5           2.3280     0.3060    -0.5150 c3         1 MOL       0.000000
      9 C6           1.4840    -0.7570    -0.4490 c3         1 MOL       0.000000
     10 H1          -2.4140     1.9430    -1.4120 hc         1 MOL       0.000000
     11 H2          -1.5570     1.6510     0.0890 hc         1 MOL       0.000000
     12 H3          -3.2550     1.2150    -0.0540 hc         1 MOL       0.000000
     13 H4          -2.6840    -0.4810    -1.7920 hc         1 MOL       0.000000
     14 H5          -0.9980    -0.0900    -1.6570 hc         1 MOL       0.000000
     15 H6          -2.7030    -1.1870     0.6250 hc         1 MOL       0.000000
     16 H7          -1.8040    -2.1810    -0.4760 hc         1 MOL       0.000000
     17 H8          -0.8480    -0.6420     1.8750 h1         1 MOL       0.000000
     18 H9          -0.2500    -2.1320     1.1990 h1         1 MOL       0.000000
     19 H10          3.2080     0.4510    -1.1020 h1         1 MOL       0.000000
     20 H11          1.4660    -1.7030    -0.9440 h1         1 MOL       0.000000
@<TRIPOS>BOND
     1     1     2 1   
     2     1    10 1   
     3     1    11 1   
     4     1    12 1   
     5     2     3 1   
     6     2    13 1   
     7     2    14 1   
     8     3     4 1   
     9     3    15 1   
    10     3    16 1   
    11     4     5 1   
    12     4    17 1   
    13     4    18 1   
    14     5     6 1   
    15     5     9 1   
    16     6     7 1   
    17     6     7 1   
    18     7     8 1   
    19     8     9 1   
    20     8     9 1   
    21     8    19 1   
    22     9    20 1   
@<TRIPOS>SUBSTRUCTURE
     1 MOL         1 TEMP              0 ****  ****    0 ROOT
