@<TRIPOS>MOLECULE
MOL
   20    22     1     0     0
SMALL
No Charge or Current Charge


@<TRIPOS>ATOM
      1 C1          -2.0860     1.0120    -0.8290 c3         1 MOL       0.000000
      2 C2          -1.9520    -0.4900    -1.0850 c3         1 MOL       0.000000
      3 C3          -1.7420    -1.3460     0.1730 c3         1 MOL       0.000000
      4 C4          -0.3130    -1.4390     0.7640 c3         1 MOL       0.000000
      5 N1           0.6170    -0.3860     0.3950 n3         1 MOL       0.000000
      6 N2           0.7510     0.6790     1.1600 n3         1 MOL       0.000000
      7 N3           1.6130     1.4500     0.6360 n3         1 MOL       0.000000
      8 C5           2.0770     0.8840    -0.5000 c3         1 MOL       0.000000
      9 C6           1.4410    -0.3050    -0.6620 c3         1 MOL       0.000000
     10 H1          -2.2850     1.5360    -1.7590 hc         1 MOL       0.000000
     11 H2          -1.1960     1.4410    -0.3900 hc         1 MOL       0.000000
     12 H3          -2.9150     1.2110    -0.1560 hc         1 MOL       0.000000
     13 H4          -2.8660    -0.8370    -1.5600 hc         1 MOL       0.000000
     14 H5          -1.1580    -0.6720    -1.8050 hc         1 MOL       0.000000
     15 H6          -2.4090    -0.9730     0.9440 hc         1 MOL       0.000000
     16 H7          -2.0590    -2.3640    -0.0300 hc         1 MOL       0.000000
     17 H8          -0.3500    -1.4470     1.8430 h1         1 MOL       0.000000
     18 H9           0.1480    -2.3660     0.4490 h1         1 MOL       0.000000
     19 H10          2.8220     1.3550    -1.1040 h1         1 MOL       0.000000
     20 H11          1.5060    -1.0680    -1.4060 h1         1 MOL       0.000000
@<TRIPOS>BOND
     1     1     2 1   
     2     1    10 1   
     3     1    11 1   
     4     1    12 1   
     5     2     3 1   
     6     2    13 1   
     7     2    14 1   
     8     3     4 1   
     9     3    15 1   
    10     3    16 1   
    11     4     5 1   
    12     4    17 1   
    13     4    18 1   
    14     5     6 1   
    15     5     9 1   
    16     6     7 1   
    17     6     7 1   
    18     7     8 1   
    19     8     9 1   
    20     8     9 1   
    21     8    19 1   
    22     9    20 1   
@<TRIPOS>SUBSTRUCTURE
     1 MOL         1 TEMP              0 ****  ****    0 ROOT
