@<TRIPOS>MOLECULE
MOL
   20    22     1     0     0
SMALL
No Charge or Current Charge


@<TRIPOS>ATOM
      1 C1          -2.5470     1.2870    -0.5370 c3         1 MOL       0.000000
      2 C2          -1.9140     0.0500    -1.1760 c3         1 MOL       0.000000
      3 C3          -1.7250    -1.1300    -0.2160 c3         1 MOL       0.000000
      4 C4          -0.7440    -0.8960     0.9380 c3         1 MOL       0.000000
      5 N1           0.5420    -0.3690     0.5120 n3         1 MOL       0.000000
      6 N2           0.8450     0.8970     0.7150 n3         1 MOL       0.000000
      7 N3           2.0000     1.1200     0.2360 n3         1 MOL       0.000000
      8 C5           2.4800    -0.0210    -0.3030 c3         1 MOL       0.000000
      9 C6           1.5440    -0.9900    -0.1310 c3         1 MOL       0.000000
     10 H1          -2.7320     2.0490    -1.2860 hc         1 MOL       0.000000
     11 H2          -1.9030     1.7240     0.2180 hc         1 MOL       0.000000
     12 H3          -3.5000     1.0430    -0.0720 hc         1 MOL       0.000000
     13 H4          -2.5440    -0.2890    -1.9940 hc         1 MOL       0.000000
     14 H5          -0.9590     0.3170    -1.6170 hc         1 MOL       0.000000
     15 H6          -2.6790    -1.4100     0.2230 hc         1 MOL       0.000000
     16 H7          -1.3880    -1.9920    -0.7880 hc         1 MOL       0.000000
     17 H8          -1.1320    -0.1750     1.6410 h1         1 MOL       0.000000
     18 H9          -0.5730    -1.8210     1.4750 h1         1 MOL       0.000000
     19 H10          3.4440    -0.0690    -0.7610 h1         1 MOL       0.000000
     20 H11          1.5110    -2.0250    -0.3940 h1         1 MOL       0.000000
@<TRIPOS>BOND
     1     1     2 1   
     2     1    10 1   
     3     1    11 1   
     4     1    12 1   
     5     2     3 1   
     6     2    13 1   
     7     2    14 1   
     8     3     4 1   
     9     3    15 1   
    10     3    16 1   
    11     4     5 1   
    12     4    17 1   
    13     4    18 1   
    14     5     6 1   
    15     5     9 1   
    16     6     7 1   
    17     6     7 1   
    18     7     8 1   
    19     8     9 1   
    20     8     9 1   
    21     8    19 1   
    22     9    20 1   
@<TRIPOS>SUBSTRUCTURE
     1 MOL         1 TEMP              0 ****  ****    0 ROOT
