@<TRIPOS>MOLECULE
MOL
   20    22     1     0     0
SMALL
No Charge or Current Charge


@<TRIPOS>ATOM
      1 C1          -3.6680     0.9160    -0.3090 c3         1 MOL       0.000000
      2 C2          -2.5120     0.6260    -1.2680 c3         1 MOL       0.000000
      3 C3          -1.4670    -0.3450    -0.7110 c3         1 MOL       0.000000
      4 C4          -0.7070     0.2100     0.5070 c3         1 MOL       0.000000
      5 N1           0.7080    -0.1200     0.4900 n3         1 MOL       0.000000
      6 N2           1.5480     0.6180    -0.2050 n3         1 MOL       0.000000
      7 N3           2.7080     0.1070    -0.1150 n3         1 MOL       0.000000
      8 C5           2.6410    -1.0020     0.6520 c3         1 MOL       0.000000
      9 C6           1.3500    -1.1590     1.0470 c3         1 MOL       0.000000
     10 H1          -4.3880     1.5910    -0.7610 hc         1 MOL       0.000000
     11 H2          -3.3250     1.3800     0.6120 hc         1 MOL       0.000000
     12 H3          -4.1930     0.0030    -0.0430 hc         1 MOL       0.000000
     13 H4          -2.9130     0.2080    -2.1880 hc         1 MOL       0.000000
     14 H5          -2.0190     1.5540    -1.5420 hc         1 MOL       0.000000
     15 H6          -1.9310    -1.2950    -0.4590 hc         1 MOL       0.000000
     16 H7          -0.7420    -0.5480    -1.4910 hc         1 MOL       0.000000
     17 H8          -0.7550     1.2900     0.5220 h1         1 MOL       0.000000
     18 H9          -1.1160    -0.1500     1.4410 h1         1 MOL       0.000000
     19 H10          3.5040    -1.5930     0.8690 h1         1 MOL       0.000000
     20 H11          0.8570    -1.8860     1.6540 h1         1 MOL       0.000000
@<TRIPOS>BOND
     1     1     2 1   
     2     1    10 1   
     3     1    11 1   
     4     1    12 1   
     5     2     3 1   
     6     2    13 1   
     7     2    14 1   
     8     3     4 1   
     9     3    15 1   
    10     3    16 1   
    11     4     5 1   
    12     4    17 1   
    13     4    18 1   
    14     5     6 1   
    15     5     9 1   
    16     6     7 1   
    17     6     7 1   
    18     7     8 1   
    19     8     9 1   
    20     8     9 1   
    21     8    19 1   
    22     9    20 1   
@<TRIPOS>SUBSTRUCTURE
     1 MOL         1 TEMP              0 ****  ****    0 ROOT
