@<TRIPOS>MOLECULE
MOL
   20    22     1     0     0
SMALL
No Charge or Current Charge


@<TRIPOS>ATOM
      1 C1          -2.4470     1.2800    -0.5240 c3         1 MOL       0.000000
      2 C2          -1.9000    -0.0120    -1.1340 c3         1 MOL       0.000000
      3 C3          -1.7560    -1.1650    -0.1350 c3         1 MOL       0.000000
      4 C4          -0.6910    -0.9840     0.9580 c3         1 MOL       0.000000
      5 N1           0.5450    -0.3790     0.4920 n3         1 MOL       0.000000
      6 N2           0.8320     0.8720     0.7880 n3         1 MOL       0.000000
      7 N3           1.9450     1.1700     0.2550 n3         1 MOL       0.000000
      8 C5           2.4180     0.0930    -0.4100 c3         1 MOL       0.000000
      9 C6           1.5200    -0.9150    -0.2610 c3         1 MOL       0.000000
     10 H1          -2.5740     2.0390    -1.2890 hc         1 MOL       0.000000
     11 H2          -1.7790     1.6840     0.2270 hc         1 MOL       0.000000
     12 H3          -3.4170     1.1120    -0.0630 hc         1 MOL       0.000000
     13 H4          -2.5700    -0.3440    -1.9230 hc         1 MOL       0.000000
     14 H5          -0.9440     0.1830    -1.6090 hc         1 MOL       0.000000
     15 H6          -2.7030    -1.3520     0.3630 hc         1 MOL       0.000000
     16 H7          -1.5250    -2.0700    -0.6930 hc         1 MOL       0.000000
     17 H8          -1.0460    -0.3300     1.7400 h1         1 MOL       0.000000
     18 H9          -0.4540    -1.9390     1.4100 h1         1 MOL       0.000000
     19 H10          3.3500     0.1140    -0.9320 h1         1 MOL       0.000000
     20 H11          1.4960    -1.9240    -0.6100 h1         1 MOL       0.000000
@<TRIPOS>BOND
     1     1     2 1   
     2     1    10 1   
     3     1    11 1   
     4     1    12 1   
     5     2     3 1   
     6     2    13 1   
     7     2    14 1   
     8     3     4 1   
     9     3    15 1   
    10     3    16 1   
    11     4     5 1   
    12     4    17 1   
    13     4    18 1   
    14     5     6 1   
    15     5     9 1   
    16     6     7 1   
    17     6     7 1   
    18     7     8 1   
    19     8     9 1   
    20     8     9 1   
    21     8    19 1   
    22     9    20 1   
@<TRIPOS>SUBSTRUCTURE
     1 MOL         1 TEMP              0 ****  ****    0 ROOT
