@<TRIPOS>MOLECULE
MOL
   20    22     1     0     0
SMALL
No Charge or Current Charge


@<TRIPOS>ATOM
      1 C1          -2.0400     0.7670    -1.4900 c3         1 MOL       0.000000
      2 C2          -2.3400    -0.7060    -1.2100 c3         1 MOL       0.000000
      3 C3          -1.5710    -1.3120    -0.0300 c3         1 MOL       0.000000
      4 C4          -0.0560    -1.4480    -0.2280 c3         1 MOL       0.000000
      5 N1           0.7050    -0.2810     0.2010 n3         1 MOL       0.000000
      6 N2           0.6050     0.1630     1.4360 n3         1 MOL       0.000000
      7 N3           1.4030     1.1410     1.5830 n3         1 MOL       0.000000
      8 C5           2.0610     1.3490     0.4230 c3         1 MOL       0.000000
      9 C6           1.6210     0.4310    -0.4760 c3         1 MOL       0.000000
     10 H1          -2.6830     1.1430    -2.2800 hc         1 MOL       0.000000
     11 H2          -1.0140     0.9230    -1.8040 hc         1 MOL       0.000000
     12 H3          -2.2080     1.3750    -0.6070 hc         1 MOL       0.000000
     13 H4          -3.4020    -0.8130    -1.0040 hc         1 MOL       0.000000
     14 H5          -2.1460    -1.2950    -2.1040 hc         1 MOL       0.000000
     15 H6          -1.7580    -0.7540     0.8790 hc         1 MOL       0.000000
     16 H7          -1.9560    -2.3140     0.1390 hc         1 MOL       0.000000
     17 H8           0.3140    -2.2920     0.3380 h1         1 MOL       0.000000
     18 H9           0.1900    -1.6190    -1.2680 h1         1 MOL       0.000000
     19 H10          2.7870     2.1250     0.3160 h1         1 MOL       0.000000
     20 H11          1.8690     0.2340    -1.4960 h1         1 MOL       0.000000
@<TRIPOS>BOND
     1     1     2 1   
     2     1    10 1   
     3     1    11 1   
     4     1    12 1   
     5     2     3 1   
     6     2    13 1   
     7     2    14 1   
     8     3     4 1   
     9     3    15 1   
    10     3    16 1   
    11     4     5 1   
    12     4    17 1   
    13     4    18 1   
    14     5     6 1   
    15     5     9 1   
    16     6     7 1   
    17     6     7 1   
    18     7     8 1   
    19     8     9 1   
    20     8     9 1   
    21     8    19 1   
    22     9    20 1   
@<TRIPOS>SUBSTRUCTURE
     1 MOL         1 TEMP              0 ****  ****    0 ROOT
