@<TRIPOS>MOLECULE								
MOL								
20	20	1	0	0				
SMALL								
No	Charge	or	Current	Charge				
@<TRIPOS>ATOM								
1	C1	-2.1210	1.0880	-0.7430	c3	1	MOL	-0.0574796410713743
2	C2	-1.9630	-0.3980	-1.0700	c3	1	MOL	0.0502276851611604
3	C3	-1.7800	-1.3110	0.1510	c3	1	MOL	0.029434866161889
4	C4	-0.3830	-1.3740	0.8260	c3	1	MOL	-0.1367489029942565
5	N1	0.6000	-0.3910	0.4030	na	1	MOL	0.3986932518358891
6	N2	0.7970	0.7000	1.1160	nc	1	MOL	-0.2502196049522864
7	N3	1.7060	1.3900	0.5600	nd	1	MOL	-0.3193359951280445
8	C5	2.1320	0.7460	-0.5490	cd	1	MOL	0.1155272094562996
9	C6	1.4270	-0.4100	-0.6550	cc	1	MOL	-0.3665531218424377
10	H1	-2.2950	1.6580	-1.6510	hc	1	MOL	0.0130890605865177
11	H2	-1.2490	1.5000	-0.2550	hc	1	MOL	0.0130890605865177
12	H3	-2.9740	1.2460	-0.0880	hc	1	MOL	0.0130890605865177
13	H4	-2.8590	-0.7330	-1.5860	hc	1	MOL	-0.0014480429946745
14	H5	-1.1470	-0.5370	-1.7740	hc	1	MOL	-0.0014480429946745
15	H6	-2.5060	-1.0160	0.9020	hc	1	MOL	0.013903235081947
16	H7	-2.0400	-2.3260	-0.1330	hc	1	MOL	0.013903235081947
17	H8	-0.4720	-1.2530	1.8940	h1	1	MOL	0.0718422229084886
18	H9	0.0630	-2.3440	0.6480	h1	1	MOL	0.0718422229084886
19	H10	2.9020	1.1430	-1.1740	h4	1	MOL	0.1170117401835705
20	H11	1.4470	-1.2110	-1.3610	h4	1	MOL	0.2115805014385151
@<TRIPOS>BOND								
1	1	2	1					
2	1	10	1					
3	1	11	1					
4	1	12	1					
5	2	3	1					
6	2	13	1					
7	2	14	1					
8	3	4	1					
9	3	15	1					
10	3	16	1					
11	4	5	1					
12	4	17	1					
13	4	18	1					
14	5	6	1					
15	5	9	1					
16	6	7	2					
17	7	8	1					
18	8	9	2					
19	8	19	1					
20	9	20	1					
@<TRIPOS>SUBSTRUCTURE								
1	MOL	1	TEMP	0	****	****	0	ROOT
