@<TRIPOS>MOLECULE
MOL
   20    22     1     0     0
SMALL
No Charge or Current Charge


@<TRIPOS>ATOM
      1 C1          -2.6100     0.9320    -2.4060 c3         1 MOL       0.000000
      2 C2          -2.6710    -0.2310    -1.4140 c3         1 MOL       0.000000
      3 C3          -1.6180    -0.1750    -0.3010 c3         1 MOL       0.000000
      4 C4          -0.1950    -0.4390    -0.7950 c3         1 MOL       0.000000
      5 N1           0.8030    -0.1580     0.2210 n3         1 MOL       0.000000
      6 N2           1.0920    -1.0620     1.1350 n3         1 MOL       0.000000
      7 N3           1.9450    -0.5700     1.9370 n3         1 MOL       0.000000
      8 C5           2.2290     0.6940     1.5550 c3         1 MOL       0.000000
      9 C6           1.4940     0.9700     0.4470 c3         1 MOL       0.000000
     10 H1          -3.4200     0.8650    -3.1240 hc         1 MOL       0.000000
     11 H2          -1.6830     0.9470    -2.9700 hc         1 MOL       0.000000
     12 H3          -2.7020     1.8860    -1.8940 hc         1 MOL       0.000000
     13 H4          -3.6520    -0.2390    -0.9480 hc         1 MOL       0.000000
     14 H5          -2.5870    -1.1740    -1.9510 hc         1 MOL       0.000000
     15 H6          -1.6490     0.8020     0.1740 hc         1 MOL       0.000000
     16 H7          -1.8510    -0.9030     0.4690 hc         1 MOL       0.000000
     17 H8          -0.0730    -1.4730    -1.0870 h1         1 MOL       0.000000
     18 H9           0.0470     0.1780    -1.6500 h1         1 MOL       0.000000
     19 H10          2.9300     1.3010     2.0860 h1         1 MOL       0.000000
     20 H11          1.4120     1.8340    -0.1760 h1         1 MOL       0.000000
@<TRIPOS>BOND
     1     1     2 1   
     2     1    10 1   
     3     1    11 1   
     4     1    12 1   
     5     2     3 1   
     6     2    13 1   
     7     2    14 1   
     8     3     4 1   
     9     3    15 1   
    10     3    16 1   
    11     4     5 1   
    12     4    17 1   
    13     4    18 1   
    14     5     6 1   
    15     5     9 1   
    16     6     7 1   
    17     6     7 1   
    18     7     8 1   
    19     8     9 1   
    20     8     9 1   
    21     8    19 1   
    22     9    20 1   
@<TRIPOS>SUBSTRUCTURE
     1 MOL         1 TEMP              0 ****  ****    0 ROOT
