@<TRIPOS>MOLECULE								
MOL								
20	20	1	0	0				
SMALL								
No	Charge	or	Current	Charge				
@<TRIPOS>ATOM								
1	C1	-2.0050	0.7360	-1.3770	c3	1	MOL	-0.0574796410713743
2	C2	-2.2470	-0.7620	-1.1760	c3	1	MOL	0.0502276851611604
3	C3	-1.5530	-1.3850	0.0420	c3	1	MOL	0.029434866161889
4	C4	-0.0320	-1.5270	-0.0480	c3	1	MOL	-0.1367489029942565
5	N1	0.7020	-0.2990	0.2290	na	1	MOL	0.3986932518358891
6	N2	0.5110	0.3530	1.3560	nc	1	MOL	-0.2502196049522864
7	N3	1.3000	1.3490	1.3890	nd	1	MOL	-0.3193359951280445
8	C5	2.0400	1.3590	0.2600	cd	1	MOL	0.1155272094562996
9	C6	1.6640	0.2940	-0.4950	cc	1	MOL	-0.3665531218424377
10	H1	-2.6160	1.1100	-2.1930	hc	1	MOL	0.0130890605865177
11	H2	-0.9710	0.9570	-1.6150	hc	1	MOL	0.0130890605865177
12	H3	-2.2630	1.2960	-0.4840	hc	1	MOL	0.0130890605865177
13	H4	-3.3150	-0.9260	-1.0620	hc	1	MOL	-0.0014480429946745
14	H5	-1.9550	-1.3050	-2.0730	hc	1	MOL	-0.0014480429946745
15	H6	-1.8020	-0.8380	0.9440	hc	1	MOL	0.013903235081947
16	H7	-1.9430	-2.3910	0.1730	hc	1	MOL	0.013903235081947
17	H8	0.3050	-2.2710	0.6630	h1	1	MOL	0.0718422229084886
18	H9	0.2690	-1.8560	-1.0350	h1	1	MOL	0.0718422229084886
19	H10	2.7740	2.1120	0.0710	h4	1	MOL	0.1170117401835705
20	H11	1.9850	-0.0750	-1.4450	h4	1	MOL	0.2115805014385151
@<TRIPOS>BOND								
1	1	2	1					
2	1	10	1					
3	1	11	1					
4	1	12	1					
5	2	3	1					
6	2	13	1					
7	2	14	1					
8	3	4	1					
9	3	15	1					
10	3	16	1					
11	4	5	1					
12	4	17	1					
13	4	18	1					
14	5	6	1					
15	5	9	1					
16	6	7	2					
17	7	8	1					
18	8	9	2					
19	8	19	1					
20	9	20	1					
@<TRIPOS>SUBSTRUCTURE								
1	MOL	1	TEMP	0	****	****	0	ROOT
