@<TRIPOS>MOLECULE
MOL
   20    22     1     0     0
SMALL
No Charge or Current Charge


@<TRIPOS>ATOM
      1 C1          -3.6350     1.0080    -0.3960 c3         1 MOL       0.000000
      2 C2          -2.4630     0.6960    -1.3280 c3         1 MOL       0.000000
      3 C3          -1.4560    -0.3040    -0.7510 c3         1 MOL       0.000000
      4 C4          -0.7140     0.2240     0.4900 c3         1 MOL       0.000000
      5 N1           0.6920    -0.1410     0.5070 n3         1 MOL       0.000000
      6 N2           1.5680     0.5820    -0.1600 n3         1 MOL       0.000000
      7 N3           2.7120     0.0420    -0.0450 n3         1 MOL       0.000000
      8 C5           2.5980    -1.0710     0.7130 c3         1 MOL       0.000000
      9 C6           1.2940    -1.1980     1.0720 c3         1 MOL       0.000000
     10 H1          -4.3260     1.7030    -0.8620 hc         1 MOL       0.000000
     11 H2          -3.3050     1.4570     0.5360 hc         1 MOL       0.000000
     12 H3          -4.1890     0.1060    -0.1510 hc         1 MOL       0.000000
     13 H4          -2.8490     0.2940    -2.2600 hc         1 MOL       0.000000
     14 H5          -1.9400     1.6140    -1.5820 hc         1 MOL       0.000000
     15 H6          -1.9500    -1.2440    -0.5190 hc         1 MOL       0.000000
     16 H7          -0.7160    -0.5200    -1.5140 hc         1 MOL       0.000000
     17 H8          -0.7360     1.3050     0.5120 h1         1 MOL       0.000000
     18 H9          -1.1570    -0.1320     1.4110 h1         1 MOL       0.000000
     19 H10          3.4400    -1.6850     0.9470 h1         1 MOL       0.000000
     20 H11          0.7680    -1.9180     1.6610 h1         1 MOL       0.000000
@<TRIPOS>BOND
     1     1     2 1   
     2     1    10 1   
     3     1    11 1   
     4     1    12 1   
     5     2     3 1   
     6     2    13 1   
     7     2    14 1   
     8     3     4 1   
     9     3    15 1   
    10     3    16 1   
    11     4     5 1   
    12     4    17 1   
    13     4    18 1   
    14     5     6 1   
    15     5     9 1   
    16     6     7 1   
    17     6     7 1   
    18     7     8 1   
    19     8     9 1   
    20     8     9 1   
    21     8    19 1   
    22     9    20 1   
@<TRIPOS>SUBSTRUCTURE
     1 MOL         1 TEMP              0 ****  ****    0 ROOT
