@<TRIPOS>MOLECULE
MOL
   20    22     1     0     0
SMALL
No Charge or Current Charge


@<TRIPOS>ATOM
      1 C1          -1.9980     0.7940    -1.2480 c3         1 MOL       0.000000
      2 C2          -2.1480    -0.7280    -1.1740 c3         1 MOL       0.000000
      3 C3          -1.5790    -1.3890     0.0900 c3         1 MOL       0.000000
      4 C4          -0.0620    -1.5770     0.1330 c3         1 MOL       0.000000
      5 N1           0.6940    -0.3410     0.2690 n3         1 MOL       0.000000
      6 N2           0.5050     0.4450     1.3070 n3         1 MOL       0.000000
      7 N3           1.2890     1.4400     1.2120 n3         1 MOL       0.000000
      8 C5           2.0280     1.3110     0.0890 c3         1 MOL       0.000000
      9 C6           1.6540     0.1580    -0.5250 c3         1 MOL       0.000000
     10 H1          -2.5100     1.1780    -2.1250 hc         1 MOL       0.000000
     11 H2          -0.9630     1.1070    -1.3080 hc         1 MOL       0.000000
     12 H3          -2.4340     1.2680    -0.3750 hc         1 MOL       0.000000
     13 H4          -3.2080    -0.9670    -1.2180 hc         1 MOL       0.000000
     14 H5          -1.7030    -1.1870    -2.0550 hc         1 MOL       0.000000
     15 H6          -1.8920    -0.8450     0.9750 hc         1 MOL       0.000000
     16 H7          -2.0020    -2.3870     0.1760 hc         1 MOL       0.000000
     17 H8           0.2010    -2.2120     0.9700 h1         1 MOL       0.000000
     18 H9           0.2880    -2.0600    -0.7700 h1         1 MOL       0.000000
     19 H10          2.7620     2.0350    -0.1930 h1         1 MOL       0.000000
     20 H11          1.9720    -0.3250    -1.4230 h1         1 MOL       0.000000
@<TRIPOS>BOND
     1     1     2 1   
     2     1    10 1   
     3     1    11 1   
     4     1    12 1   
     5     2     3 1   
     6     2    13 1   
     7     2    14 1   
     8     3     4 1   
     9     3    15 1   
    10     3    16 1   
    11     4     5 1   
    12     4    17 1   
    13     4    18 1   
    14     5     6 1   
    15     5     9 1   
    16     6     7 1   
    17     6     7 1   
    18     7     8 1   
    19     8     9 1   
    20     8     9 1   
    21     8    19 1   
    22     9    20 1   
@<TRIPOS>SUBSTRUCTURE
     1 MOL         1 TEMP              0 ****  ****    0 ROOT
