@<TRIPOS>MOLECULE								
MOL								
20	20	1	0	0				
SMALL								
No	Charge	or	Current	Charge				
@<TRIPOS>ATOM								
1	C1	-3.2920	1.1150	-0.4070	c3	1	MOL	-0.0574796410713743
2	C2	-2.2020	0.3280	-1.1360	c3	1	MOL	0.0502276851611604
3	C3	-1.6260	-0.8360	-0.3210	c3	1	MOL	0.029434866161889
4	C4	-0.7550	-0.4110	0.8720	c3	1	MOL	-0.1367489029942565
5	N1	0.6490	-0.2610	0.5250	na	1	MOL	0.3986932518358891
6	N2	1.1230	0.9090	0.1470	nc	1	MOL	-0.2502196049522864
7	N3	2.3520	0.7740	-0.1450	nd	1	MOL	-0.3193359951280445
8	C5	2.7070	-0.5160	0.0360	cd	1	MOL	0.1155272094562996
9	C6	1.6120	-1.1940	0.4680	cc	1	MOL	-0.3665531218424377
10	H1	-3.6820	1.9050	-1.0410	hc	1	MOL	0.0130890605865177
11	H2	-2.9240	1.5850	0.5000	hc	1	MOL	0.0130890605865177
12	H3	-4.1240	0.4710	-0.1330	hc	1	MOL	0.0130890605865177
13	H4	-2.6190	-0.0740	-2.0550	hc	1	MOL	-0.0014480429946745
14	H5	-1.3990	0.9980	-1.4290	hc	1	MOL	-0.0014480429946745
15	H6	-2.4490	-1.4370	0.0600	hc	1	MOL	0.013903235081947
16	H7	-1.0400	-1.4870	-0.9610	hc	1	MOL	0.013903235081947
17	H8	-1.0720	0.5320	1.2910	h1	1	MOL	0.0718422229084886
18	H9	-0.8030	-1.1530	1.6580	h1	1	MOL	0.0718422229084886
19	H10	3.7030	-0.8600	-0.1440	h4	1	MOL	0.1170117401835705
20	H11	1.4460	-2.2150	0.7340	h4	1	MOL	0.2115805014385151
@<TRIPOS>BOND								
1	1	2	1					
2	1	10	1					
3	1	11	1					
4	1	12	1					
5	2	3	1					
6	2	13	1					
7	2	14	1					
8	3	4	1					
9	3	15	1					
10	3	16	1					
11	4	5	1					
12	4	17	1					
13	4	18	1					
14	5	6	1					
15	5	9	1					
16	6	7	2					
17	7	8	1					
18	8	9	2					
19	8	19	1					
20	9	20	1					
@<TRIPOS>SUBSTRUCTURE								
1	MOL	1	TEMP	0	****	****	0	ROOT
