@<TRIPOS>MOLECULE
MOL
   20    22     1     0     0
SMALL
No Charge or Current Charge


@<TRIPOS>ATOM
      1 C1          -2.5650     0.9280    -2.3270 c3         1 MOL       0.000000
      2 C2          -2.6540    -0.3070    -1.4280 c3         1 MOL       0.000000
      3 C3          -1.6350    -0.3280    -0.2820 c3         1 MOL       0.000000
      4 C4          -0.2030    -0.6110    -0.7480 c3         1 MOL       0.000000
      5 N1           0.7940    -0.1890     0.2200 n3         1 MOL       0.000000
      6 N2           1.1190    -0.9760     1.2240 n3         1 MOL       0.000000
      7 N3           1.9600    -0.3700     1.9590 n3         1 MOL       0.000000
      8 C5           2.2000     0.8520     1.4360 c3         1 MOL       0.000000
      9 C6           1.4480     0.9800     0.3120 c3         1 MOL       0.000000
     10 H1          -3.3350     0.9020    -3.0910 hc         1 MOL       0.000000
     11 H2          -1.6090     1.0010    -2.8370 hc         1 MOL       0.000000
     12 H3          -2.7030     1.8380    -1.7510 hc         1 MOL       0.000000
     13 H4          -3.6500    -0.3510    -0.9980 hc         1 MOL       0.000000
     14 H5          -2.5490    -1.2070    -2.0310 hc         1 MOL       0.000000
     15 H6          -1.6540     0.6310     0.2280 hc         1 MOL       0.000000
     16 H7          -1.9120    -1.0750     0.4550 hc         1 MOL       0.000000
     17 H8          -0.0530    -1.6670    -0.9220 h1         1 MOL       0.000000
     18 H9           0.0190    -0.0900    -1.6700 h1         1 MOL       0.000000
     19 H10          2.8840     1.5370     1.8890 h1         1 MOL       0.000000
     20 H11          1.3340     1.7660    -0.4020 h1         1 MOL       0.000000
@<TRIPOS>BOND
     1     1     2 1   
     2     1    10 1   
     3     1    11 1   
     4     1    12 1   
     5     2     3 1   
     6     2    13 1   
     7     2    14 1   
     8     3     4 1   
     9     3    15 1   
    10     3    16 1   
    11     4     5 1   
    12     4    17 1   
    13     4    18 1   
    14     5     6 1   
    15     5     9 1   
    16     6     7 1   
    17     6     7 1   
    18     7     8 1   
    19     8     9 1   
    20     8     9 1   
    21     8    19 1   
    22     9    20 1   
@<TRIPOS>SUBSTRUCTURE
     1 MOL         1 TEMP              0 ****  ****    0 ROOT
