@<TRIPOS>MOLECULE
MOL
   20    22     1     0     0
SMALL
No Charge or Current Charge


@<TRIPOS>ATOM
      1 C1          -2.3230     0.8470    -2.0490 c3         1 MOL       0.000000
      2 C2          -2.5750    -0.4990    -1.3690 c3         1 MOL       0.000000
      3 C3          -1.6620    -0.7750    -0.1690 c3         1 MOL       0.000000
      4 C4          -0.1900    -1.0420    -0.5500 c3         1 MOL       0.000000
      5 N1           0.7590    -0.2500     0.2120 n3         1 MOL       0.000000
      6 N2           1.1340    -0.6430     1.4110 n3         1 MOL       0.000000
      7 N3           1.9150     0.2320     1.9000 n3         1 MOL       0.000000
      8 C5           2.0600     1.2370     1.0100 c3         1 MOL       0.000000
      9 C6           1.3150     0.9350    -0.0860 c3         1 MOL       0.000000
     10 H1          -3.0160     1.0000    -2.8700 hc         1 MOL       0.000000
     11 H2          -1.3200     0.9180    -2.4590 hc         1 MOL       0.000000
     12 H3          -2.4520     1.6660    -1.3480 hc         1 MOL       0.000000
     13 H4          -3.6060    -0.5300    -1.0280 hc         1 MOL       0.000000
     14 H5          -2.4760    -1.3020    -2.0970 hc         1 MOL       0.000000
     15 H6          -1.7000     0.0710     0.5100 hc         1 MOL       0.000000
     16 H7          -2.0400    -1.6260     0.3870 hc         1 MOL       0.000000
     17 H8           0.0710    -2.0770    -0.3880 h1         1 MOL       0.000000
     18 H9          -0.0100    -0.8230    -1.5940 h1         1 MOL       0.000000
     19 H10          2.6800     2.0840     1.2080 h1         1 MOL       0.000000
     20 H11          1.1460     1.4390    -1.0120 h1         1 MOL       0.000000
@<TRIPOS>BOND
     1     1     2 1   
     2     1    10 1   
     3     1    11 1   
     4     1    12 1   
     5     2     3 1   
     6     2    13 1   
     7     2    14 1   
     8     3     4 1   
     9     3    15 1   
    10     3    16 1   
    11     4     5 1   
    12     4    17 1   
    13     4    18 1   
    14     5     6 1   
    15     5     9 1   
    16     6     7 1   
    17     6     7 1   
    18     7     8 1   
    19     8     9 1   
    20     8     9 1   
    21     8    19 1   
    22     9    20 1   
@<TRIPOS>SUBSTRUCTURE
     1 MOL         1 TEMP              0 ****  ****    0 ROOT
