@<TRIPOS>MOLECULE
MOL
   20    22     1     0     0
SMALL
No Charge or Current Charge


@<TRIPOS>ATOM
      1 C1          -2.0610     0.9550    -0.9020 c3         1 MOL       0.000000
      2 C2          -1.9750    -0.5590    -1.1080 c3         1 MOL       0.000000
      3 C3          -1.6750    -1.3700     0.1630 c3         1 MOL       0.000000
      4 C4          -0.1950    -1.5630     0.5290 c3         1 MOL       0.000000
      5 N1           0.6550    -0.4010     0.3370 n3         1 MOL       0.000000
      6 N2           0.6850     0.5550     1.2420 n3         1 MOL       0.000000
      7 N3           1.4840     1.4610     0.8490 n3         1 MOL       0.000000
      8 C5           2.0020     1.1030    -0.3460 c3         1 MOL       0.000000
      9 C6           1.4720    -0.1000    -0.6860 c3         1 MOL       0.000000
     10 H1          -2.3110     1.4480    -1.8360 hc         1 MOL       0.000000
     11 H2          -1.1350     1.3800    -0.5390 hc         1 MOL       0.000000
     12 H3          -2.8380     1.1980    -0.1830 hc         1 MOL       0.000000
     13 H4          -2.9280    -0.9010    -1.5020 hc         1 MOL       0.000000
     14 H5          -1.2410    -0.7860    -1.8780 hc         1 MOL       0.000000
     15 H6          -2.1840    -0.9050     1.0020 hc         1 MOL       0.000000
     16 H7          -2.0920    -2.3690     0.0700 hc         1 MOL       0.000000
     17 H8          -0.0990    -1.8620     1.5630 h1         1 MOL       0.000000
     18 H9           0.2320    -2.3490    -0.0820 h1         1 MOL       0.000000
     19 H10          2.7070     1.7160    -0.8640 h1         1 MOL       0.000000
     20 H11          1.6050    -0.7420    -1.5290 h1         1 MOL       0.000000
@<TRIPOS>BOND
     1     1     2 1   
     2     1    10 1   
     3     1    11 1   
     4     1    12 1   
     5     2     3 1   
     6     2    13 1   
     7     2    14 1   
     8     3     4 1   
     9     3    15 1   
    10     3    16 1   
    11     4     5 1   
    12     4    17 1   
    13     4    18 1   
    14     5     6 1   
    15     5     9 1   
    16     6     7 1   
    17     6     7 1   
    18     7     8 1   
    19     8     9 1   
    20     8     9 1   
    21     8    19 1   
    22     9    20 1   
@<TRIPOS>SUBSTRUCTURE
     1 MOL         1 TEMP              0 ****  ****    0 ROOT
