@<TRIPOS>MOLECULE
MOL
   20    22     1     0     0
SMALL
No Charge or Current Charge


@<TRIPOS>ATOM
      1 C1          -3.6350     1.0300    -0.4040 c3         1 MOL       0.000000
      2 C2          -2.4740     0.7840    -1.3700 c3         1 MOL       0.000000
      3 C3          -1.4060    -0.1750    -0.8370 c3         1 MOL       0.000000
      4 C4          -0.6720     0.3620     0.4000 c3         1 MOL       0.000000
      5 N1           0.6940    -0.1230     0.4960 n3         1 MOL       0.000000
      6 N2           1.6600     0.4910    -0.1570 n3         1 MOL       0.000000
      7 N3           2.7450    -0.1410     0.0330 n3         1 MOL       0.000000
      8 C5           2.5000    -1.2060     0.8270 c3         1 MOL       0.000000
      9 C6           1.1750    -1.2040     1.1290 c3         1 MOL       0.000000
     10 H1          -4.3810     1.6780    -0.8530 hc         1 MOL       0.000000
     11 H2          -3.3050     1.5050     0.5150 hc         1 MOL       0.000000
     12 H3          -4.1250     0.0970    -0.1370 hc         1 MOL       0.000000
     13 H4          -2.8660     0.3780    -2.2980 hc         1 MOL       0.000000
     14 H5          -2.0030     1.7300    -1.6250 hc         1 MOL       0.000000
     15 H6          -1.8420    -1.1460    -0.6170 hc         1 MOL       0.000000
     16 H7          -0.6680    -0.3310    -1.6170 hc         1 MOL       0.000000
     17 H8          -0.5990     1.4400     0.3560 h1         1 MOL       0.000000
     18 H9          -1.1790     0.1020     1.3190 h1         1 MOL       0.000000
     19 H10          3.2730    -1.8800     1.1230 h1         1 MOL       0.000000
     20 H11          0.5620    -1.8500     1.7200 h1         1 MOL       0.000000
@<TRIPOS>BOND
     1     1     2 1   
     2     1    10 1   
     3     1    11 1   
     4     1    12 1   
     5     2     3 1   
     6     2    13 1   
     7     2    14 1   
     8     3     4 1   
     9     3    15 1   
    10     3    16 1   
    11     4     5 1   
    12     4    17 1   
    13     4    18 1   
    14     5     6 1   
    15     5     9 1   
    16     6     7 1   
    17     6     7 1   
    18     7     8 1   
    19     8     9 1   
    20     8     9 1   
    21     8    19 1   
    22     9    20 1   
@<TRIPOS>SUBSTRUCTURE
     1 MOL         1 TEMP              0 ****  ****    0 ROOT
