@<TRIPOS>MOLECULE
MOL
   20    22     1     0     0
SMALL
No Charge or Current Charge


@<TRIPOS>ATOM
      1 C1          -3.4830     1.1070    -0.4320 c3         1 MOL       0.000000
      2 C2          -2.3090     0.5240    -1.2200 c3         1 MOL       0.000000
      3 C3          -1.5770    -0.6090    -0.4920 c3         1 MOL       0.000000
      4 C4          -0.7700    -0.1460     0.7400 c3         1 MOL       0.000000
      5 N1           0.6670    -0.2190     0.5400 n3         1 MOL       0.000000
      6 N2           1.3050     0.7720    -0.0490 n3         1 MOL       0.000000
      7 N3           2.5280     0.4530    -0.1700 n3         1 MOL       0.000000
      8 C5           2.7130    -0.7810     0.3460 c3         1 MOL       0.000000
      9 C6           1.5140    -1.2260     0.8050 c3         1 MOL       0.000000
     10 H1          -3.9720     1.8940    -0.9960 hc         1 MOL       0.000000
     11 H2          -3.1690     1.5360     0.5150 hc         1 MOL       0.000000
     12 H3          -4.2260     0.3430    -0.2180 hc         1 MOL       0.000000
     13 H4          -2.6790     0.1400    -2.1670 hc         1 MOL       0.000000
     14 H5          -1.5990     1.3090    -1.4630 hc         1 MOL       0.000000
     15 H6          -2.3030    -1.3560    -0.1820 hc         1 MOL       0.000000
     16 H7          -0.9000    -1.1040    -1.1790 hc         1 MOL       0.000000
     17 H8          -0.9890     0.8790     0.9970 h1         1 MOL       0.000000
     18 H9          -0.9940    -0.7540     1.6070 h1         1 MOL       0.000000
     19 H10          3.6720    -1.2520     0.3580 h1         1 MOL       0.000000
     20 H11          1.2070    -2.1310     1.2820 h1         1 MOL       0.000000
@<TRIPOS>BOND
     1     1     2 1   
     2     1    10 1   
     3     1    11 1   
     4     1    12 1   
     5     2     3 1   
     6     2    13 1   
     7     2    14 1   
     8     3     4 1   
     9     3    15 1   
    10     3    16 1   
    11     4     5 1   
    12     4    17 1   
    13     4    18 1   
    14     5     6 1   
    15     5     9 1   
    16     6     7 1   
    17     6     7 1   
    18     7     8 1   
    19     8     9 1   
    20     8     9 1   
    21     8    19 1   
    22     9    20 1   
@<TRIPOS>SUBSTRUCTURE
     1 MOL         1 TEMP              0 ****  ****    0 ROOT
