@<TRIPOS>MOLECULE								
MOL								
20	20	1	0	0				
SMALL								
No	Charge	or	Current	Charge				
@<TRIPOS>ATOM								
1	C1	-2.0710	0.9830	-0.8520	c3	1	MOL	-0.0574796410713743
2	C2	-1.9670	-0.5260	-1.0850	c3	1	MOL	0.0502276851611604
3	C3	-1.7100	-1.3610	0.1800	c3	1	MOL	0.029434866161889
4	C4	-0.2490	-1.5090	0.6530	c3	1	MOL	-0.1367489029942565
5	N1	0.6380	-0.3960	0.3630	na	1	MOL	0.3986932518358891
6	N2	0.7260	0.6170	1.2010	nc	1	MOL	-0.2502196049522864
7	N3	1.5530	1.4610	0.7350	nd	1	MOL	-0.3193359951280445
8	C5	2.0300	1.0020	-0.4430	cd	1	MOL	0.1155272094562996
9	C6	1.4470	-0.1990	-0.6900	cc	1	MOL	-0.3665531218424377
10	H1	-2.3040	1.4910	-1.7830	hc	1	MOL	0.0130890605865177
11	H2	-1.1570	1.4090	-0.4610	hc	1	MOL	0.0130890605865177
12	H3	-2.8660	1.2060	-0.1470	hc	1	MOL	0.0130890605865177
13	H4	-2.9040	-0.8670	-1.5150	hc	1	MOL	-0.0014480429946745
14	H5	-1.2070	-0.7330	-1.8350	hc	1	MOL	-0.0014480429946745
15	H6	-2.2950	-0.9370	0.9900	hc	1	MOL	0.013903235081947
16	H7	-2.0840	-2.3700	0.0330	hc	1	MOL	0.013903235081947
17	H8	-0.2130	-1.6680	1.7200	h1	1	MOL	0.0718422229084886
18	H9	0.1990	-2.3740	0.1790	h1	1	MOL	0.0718422229084886
19	H10	2.7490	1.5490	-1.0140	h4	1	MOL	0.1170117401835705
20	H11	1.5390	-0.9020	-1.4890	h4	1	MOL	0.2115805014385151
@<TRIPOS>BOND								
1	1	2	1					
2	1	10	1					
3	1	11	1					
4	1	12	1					
5	2	3	1					
6	2	13	1					
7	2	14	1					
8	3	4	1					
9	3	15	1					
10	3	16	1					
11	4	5	1					
12	4	17	1					
13	4	18	1					
14	5	6	1					
15	5	9	1					
16	6	7	2					
17	7	8	1					
18	8	9	2					
19	8	19	1					
20	9	20	1					
@<TRIPOS>SUBSTRUCTURE								
1	MOL	1	TEMP	0	****	****	0	ROOT
