@<TRIPOS>MOLECULE
MOL
   20    22     1     0     0
SMALL
No Charge or Current Charge


@<TRIPOS>ATOM
      1 C1          -2.2380     1.2210    -0.6300 c3         1 MOL       0.000000
      2 C2          -1.9440    -0.2110    -1.0820 c3         1 MOL       0.000000
      3 C3          -1.8250    -1.2240     0.0640 c3         1 MOL       0.000000
      4 C4          -0.5320    -1.2090     0.9240 c3         1 MOL       0.000000
      5 N1           0.5680    -0.3940     0.4340 n3         1 MOL       0.000000
      6 N2           0.8270     0.7780     0.9790 n3         1 MOL       0.000000
      7 N3           1.8420     1.2800     0.4060 n3         1 MOL       0.000000
      8 C5           2.2780     0.4220    -0.5430 c3         1 MOL       0.000000
      9 C6           1.4630    -0.6640    -0.5300 c3         1 MOL       0.000000
     10 H1          -2.3310     1.8810    -1.4870 hc         1 MOL       0.000000
     11 H2          -1.4570     1.6150     0.0080 hc         1 MOL       0.000000
     12 H3          -3.1740     1.2640    -0.0790 hc         1 MOL       0.000000
     13 H4          -2.7550    -0.5460    -1.7230 hc         1 MOL       0.000000
     14 H5          -1.0490    -0.2290    -1.6950 hc         1 MOL       0.000000
     15 H6          -2.6710    -1.1030     0.7340 hc         1 MOL       0.000000
     16 H7          -1.9230    -2.2190    -0.3610 hc         1 MOL       0.000000
     17 H8          -0.7380    -0.8240     1.9110 h1         1 MOL       0.000000
     18 H9          -0.1570    -2.2170     1.0440 h1         1 MOL       0.000000
     19 H10          3.1300     0.6370    -1.1510 h1         1 MOL       0.000000
     20 H11          1.4480    -1.5680    -1.0980 h1         1 MOL       0.000000
@<TRIPOS>BOND
     1     1     2 1   
     2     1    10 1   
     3     1    11 1   
     4     1    12 1   
     5     2     3 1   
     6     2    13 1   
     7     2    14 1   
     8     3     4 1   
     9     3    15 1   
    10     3    16 1   
    11     4     5 1   
    12     4    17 1   
    13     4    18 1   
    14     5     6 1   
    15     5     9 1   
    16     6     7 1   
    17     6     7 1   
    18     7     8 1   
    19     8     9 1   
    20     8     9 1   
    21     8    19 1   
    22     9    20 1   
@<TRIPOS>SUBSTRUCTURE
     1 MOL         1 TEMP              0 ****  ****    0 ROOT
