@<TRIPOS>MOLECULE								
MOL								
20	20	1	0	0				
SMALL								
No	Charge	or	Current	Charge				
@<TRIPOS>ATOM								
1	C1	-2.2410	0.8120	-1.9250	c3	1	MOL	-0.0574796410713743
2	C2	-2.5260	-0.5700	-1.3350	c3	1	MOL	0.0502276851611604
3	C3	-1.6400	-0.9390	-0.1390	c3	1	MOL	0.029434866161889
4	C4	-0.1530	-1.1580	-0.4910	c3	1	MOL	-0.1367489029942565
5	N1	0.7500	-0.2560	0.2050	na	1	MOL	0.3986932518358891
6	N2	1.0390	-0.4670	1.4730	nc	1	MOL	-0.2502196049522864
7	N3	1.8050	0.4630	1.8750	nd	1	MOL	-0.3193359951280445
8	C5	2.0330	1.3170	0.8540	cd	1	MOL	0.1155272094562996
9	C6	1.3530	0.8610	-0.2310	cc	1	MOL	-0.3665531218424377
10	H1	-2.9260	1.0330	-2.7370	hc	1	MOL	0.0130890605865177
11	H2	-1.2340	0.8850	-2.3250	hc	1	MOL	0.0130890605865177
12	H3	-2.3550	1.5870	-1.1730	hc	1	MOL	0.0130890605865177
13	H4	-3.5630	-0.6070	-1.0140	hc	1	MOL	-0.0014480429946745
14	H5	-2.4230	-1.3270	-2.1100	hc	1	MOL	-0.0014480429946745
15	H6	-1.7110	-0.1680	0.6200	hc	1	MOL	0.013903235081947
16	H7	-2.0250	-1.8460	0.3150	hc	1	MOL	0.013903235081947
17	H8	0.1580	-2.1600	-0.2350	h1	1	MOL	0.0718422229084886
18	H9	0.0270	-1.0240	-1.5490	h1	1	MOL	0.0718422229084886
19	H10	2.6580	2.1760	0.9630	h4	1	MOL	0.1170117401835705
20	H11	1.2570	1.2200	-1.2320	h4	1	MOL	0.2115805014385151
@<TRIPOS>BOND								
1	1	2	1					
2	1	10	1					
3	1	11	1					
4	1	12	1					
5	2	3	1					
6	2	13	1					
7	2	14	1					
8	3	4	1					
9	3	15	1					
10	3	16	1					
11	4	5	1					
12	4	17	1					
13	4	18	1					
14	5	6	1					
15	5	9	1					
16	6	7	2					
17	7	8	1					
18	8	9	2					
19	8	19	1					
20	9	20	1					
@<TRIPOS>SUBSTRUCTURE								
1	MOL	1	TEMP	0	****	****	0	ROOT
