@<TRIPOS>MOLECULE								
MOL								
20	20	1	0	0				
SMALL								
No	Charge	or	Current	Charge				
@<TRIPOS>ATOM								
1	C1	-2.0860	1.0120	-0.8290	c3	1	MOL	-0.0574796410713743
2	C2	-1.9520	-0.4900	-1.0850	c3	1	MOL	0.0502276851611604
3	C3	-1.7420	-1.3460	0.1730	c3	1	MOL	0.029434866161889
4	C4	-0.3130	-1.4390	0.7640	c3	1	MOL	-0.1367489029942565
5	N1	0.6170	-0.3860	0.3950	na	1	MOL	0.3986932518358891
6	N2	0.7510	0.6790	1.1600	nc	1	MOL	-0.2502196049522864
7	N3	1.6130	1.4500	0.6360	nd	1	MOL	-0.3193359951280445
8	C5	2.0770	0.8840	-0.5000	cd	1	MOL	0.1155272094562996
9	C6	1.4410	-0.3050	-0.6620	cc	1	MOL	-0.3665531218424377
10	H1	-2.2850	1.5360	-1.7590	hc	1	MOL	0.0130890605865177
11	H2	-1.1960	1.4410	-0.3900	hc	1	MOL	0.0130890605865177
12	H3	-2.9150	1.2110	-0.1560	hc	1	MOL	0.0130890605865177
13	H4	-2.8660	-0.8370	-1.5600	hc	1	MOL	-0.0014480429946745
14	H5	-1.1580	-0.6720	-1.8050	hc	1	MOL	-0.0014480429946745
15	H6	-2.4090	-0.9730	0.9440	hc	1	MOL	0.013903235081947
16	H7	-2.0590	-2.3640	-0.0300	hc	1	MOL	0.013903235081947
17	H8	-0.3500	-1.4470	1.8430	h1	1	MOL	0.0718422229084886
18	H9	0.1480	-2.3660	0.4490	h1	1	MOL	0.0718422229084886
19	H10	2.8220	1.3550	-1.1040	h4	1	MOL	0.1170117401835705
20	H11	1.5060	-1.0680	-1.4060	h4	1	MOL	0.2115805014385151
@<TRIPOS>BOND								
1	1	2	1					
2	1	10	1					
3	1	11	1					
4	1	12	1					
5	2	3	1					
6	2	13	1					
7	2	14	1					
8	3	4	1					
9	3	15	1					
10	3	16	1					
11	4	5	1					
12	4	17	1					
13	4	18	1					
14	5	6	1					
15	5	9	1					
16	6	7	2					
17	7	8	1					
18	8	9	2					
19	8	19	1					
20	9	20	1					
@<TRIPOS>SUBSTRUCTURE								
1	MOL	1	TEMP	0	****	****	0	ROOT
