@<TRIPOS>MOLECULE
MOL
   20    22     1     0     0
SMALL
No Charge or Current Charge


@<TRIPOS>ATOM
      1 C1          -3.3890     1.1470    -0.4520 c3         1 MOL       0.000000
      2 C2          -2.2370     0.4680    -1.1950 c3         1 MOL       0.000000
      3 C3          -1.6070    -0.6990    -0.4260 c3         1 MOL       0.000000
      4 C4          -0.7780    -0.2750     0.8020 c3         1 MOL       0.000000
      5 N1           0.6510    -0.2510     0.5420 n3         1 MOL       0.000000
      6 N2           1.2200     0.8300     0.0480 n3         1 MOL       0.000000
      7 N3           2.4520     0.5880    -0.1480 n3         1 MOL       0.000000
      8 C5           2.7130    -0.6850     0.2220 c3         1 MOL       0.000000
      9 C6           1.5540    -1.2370     0.6670 c3         1 MOL       0.000000
     10 H1          -3.8080     1.9510    -1.0470 hc         1 MOL       0.000000
     11 H2          -3.0720     1.5770     0.4930 hc         1 MOL       0.000000
     12 H3          -4.1880     0.4400    -0.2410 hc         1 MOL       0.000000
     13 H4          -2.6080     0.0910    -2.1440 hc         1 MOL       0.000000
     14 H5          -1.4690     1.1980    -1.4330 hc         1 MOL       0.000000
     15 H6          -2.3980    -1.3680    -0.0960 hc         1 MOL       0.000000
     16 H7          -0.9710    -1.2780    -1.0870 hc         1 MOL       0.000000
     17 H8          -1.0450     0.7120     1.1460 h1         1 MOL       0.000000
     18 H9          -0.9310    -0.9610     1.6240 h1         1 MOL       0.000000
     19 H10          3.6930    -1.1050     0.1510 h1         1 MOL       0.000000
     20 H11          1.3080    -2.2030     1.0510 h1         1 MOL       0.000000
@<TRIPOS>BOND
     1     1     2 1   
     2     1    10 1   
     3     1    11 1   
     4     1    12 1   
     5     2     3 1   
     6     2    13 1   
     7     2    14 1   
     8     3     4 1   
     9     3    15 1   
    10     3    16 1   
    11     4     5 1   
    12     4    17 1   
    13     4    18 1   
    14     5     6 1   
    15     5     9 1   
    16     6     7 1   
    17     6     7 1   
    18     7     8 1   
    19     8     9 1   
    20     8     9 1   
    21     8    19 1   
    22     9    20 1   
@<TRIPOS>SUBSTRUCTURE
     1 MOL         1 TEMP              0 ****  ****    0 ROOT
