@<TRIPOS>MOLECULE								
MOL								
20	20	1	0	0				
SMALL								
No	Charge	or	Current	Charge				
@<TRIPOS>ATOM								
1	C1	-2.5470	1.2870	-0.5370	c3	1	MOL	-0.0574796410713743
2	C2	-1.9140	0.0500	-1.1760	c3	1	MOL	0.0502276851611604
3	C3	-1.7250	-1.1300	-0.2160	c3	1	MOL	0.029434866161889
4	C4	-0.7440	-0.8960	0.9380	c3	1	MOL	-0.1367489029942565
5	N1	0.5420	-0.3690	0.5120	na	1	MOL	0.3986932518358891
6	N2	0.8450	0.8970	0.7150	nc	1	MOL	-0.2502196049522864
7	N3	2.0000	1.1200	0.2360	nd	1	MOL	-0.3193359951280445
8	C5	2.4800	-0.0210	-0.3030	cd	1	MOL	0.1155272094562996
9	C6	1.5440	-0.9900	-0.1310	cc	1	MOL	-0.3665531218424377
10	H1	-2.7320	2.0490	-1.2860	hc	1	MOL	0.0130890605865177
11	H2	-1.9030	1.7240	0.2180	hc	1	MOL	0.0130890605865177
12	H3	-3.5000	1.0430	-0.0720	hc	1	MOL	0.0130890605865177
13	H4	-2.5440	-0.2890	-1.9940	hc	1	MOL	-0.0014480429946745
14	H5	-0.9590	0.3170	-1.6170	hc	1	MOL	-0.0014480429946745
15	H6	-2.6790	-1.4100	0.2230	hc	1	MOL	0.013903235081947
16	H7	-1.3880	-1.9920	-0.7880	hc	1	MOL	0.013903235081947
17	H8	-1.1320	-0.1750	1.6410	h1	1	MOL	0.0718422229084886
18	H9	-0.5730	-1.8210	1.4750	h1	1	MOL	0.0718422229084886
19	H10	3.4440	-0.0690	-0.7610	h4	1	MOL	0.1170117401835705
20	H11	1.5110	-2.0250	-0.3940	h4	1	MOL	0.2115805014385151
@<TRIPOS>BOND								
1	1	2	1					
2	1	10	1					
3	1	11	1					
4	1	12	1					
5	2	3	1					
6	2	13	1					
7	2	14	1					
8	3	4	1					
9	3	15	1					
10	3	16	1					
11	4	5	1					
12	4	17	1					
13	4	18	1					
14	5	6	1					
15	5	9	1					
16	6	7	2					
17	7	8	1					
18	8	9	2					
19	8	19	1					
20	9	20	1					
@<TRIPOS>SUBSTRUCTURE								
1	MOL	1	TEMP	0	****	****	0	ROOT
