@<TRIPOS>MOLECULE								
MOL								
20	20	1	0	0				
SMALL								
No	Charge	or	Current	Charge				
@<TRIPOS>ATOM								
1	C1	-3.3890	1.1470	-0.4520	c3	1	MOL	-0.0574796410713743
2	C2	-2.2370	0.4680	-1.1950	c3	1	MOL	0.0502276851611604
3	C3	-1.6070	-0.6990	-0.4260	c3	1	MOL	0.029434866161889
4	C4	-0.7780	-0.2750	0.8020	c3	1	MOL	-0.1367489029942565
5	N1	0.6510	-0.2510	0.5420	na	1	MOL	0.3986932518358891
6	N2	1.2200	0.8300	0.0480	nc	1	MOL	-0.2502196049522864
7	N3	2.4520	0.5880	-0.1480	nd	1	MOL	-0.3193359951280445
8	C5	2.7130	-0.6850	0.2220	cd	1	MOL	0.1155272094562996
9	C6	1.5540	-1.2370	0.6670	cc	1	MOL	-0.3665531218424377
10	H1	-3.8080	1.9510	-1.0470	hc	1	MOL	0.0130890605865177
11	H2	-3.0720	1.5770	0.4930	hc	1	MOL	0.0130890605865177
12	H3	-4.1880	0.4400	-0.2410	hc	1	MOL	0.0130890605865177
13	H4	-2.6080	0.0910	-2.1440	hc	1	MOL	-0.0014480429946745
14	H5	-1.4690	1.1980	-1.4330	hc	1	MOL	-0.0014480429946745
15	H6	-2.3980	-1.3680	-0.0960	hc	1	MOL	0.013903235081947
16	H7	-0.9710	-1.2780	-1.0870	hc	1	MOL	0.013903235081947
17	H8	-1.0450	0.7120	1.1460	h1	1	MOL	0.0718422229084886
18	H9	-0.9310	-0.9610	1.6240	h1	1	MOL	0.0718422229084886
19	H10	3.6930	-1.1050	0.1510	h4	1	MOL	0.1170117401835705
20	H11	1.3080	-2.2030	1.0510	h4	1	MOL	0.2115805014385151
@<TRIPOS>BOND								
1	1	2	1					
2	1	10	1					
3	1	11	1					
4	1	12	1					
5	2	3	1					
6	2	13	1					
7	2	14	1					
8	3	4	1					
9	3	15	1					
10	3	16	1					
11	4	5	1					
12	4	17	1					
13	4	18	1					
14	5	6	1					
15	5	9	1					
16	6	7	2					
17	7	8	1					
18	8	9	2					
19	8	19	1					
20	9	20	1					
@<TRIPOS>SUBSTRUCTURE								
1	MOL	1	TEMP	0	****	****	0	ROOT
