@<TRIPOS>MOLECULE								
MOL								
20	20	1	0	0				
SMALL								
No	Charge	or	Current	Charge				
@<TRIPOS>ATOM								
1	C1	-2.0940	0.7640	-1.6440	c3	1	MOL	-0.0574796410713743
2	C2	-2.4020	-0.6840	-1.2590	c3	1	MOL	0.0502276851611604
3	C3	-1.5910	-1.2160	-0.0720	c3	1	MOL	0.029434866161889
4	C4	-0.0810	-1.3600	-0.3310	c3	1	MOL	-0.1367489029942565
5	N1	0.7140	-0.2620	0.2020	na	1	MOL	0.3986932518358891
6	N2	0.7170	-0.0130	1.4950	nc	1	MOL	-0.2502196049522864
7	N3	1.5130	0.9500	1.7220	nd	1	MOL	-0.3193359951280445
8	C5	2.0640	1.3490	0.5560	cd	1	MOL	0.1155272094562996
9	C6	1.5560	0.5690	-0.4330	cc	1	MOL	-0.3665531218424377
10	H1	-2.7370	1.0910	-2.4550	hc	1	MOL	0.0130890605865177
11	H2	-1.0680	0.8880	-1.9740	hc	1	MOL	0.0130890605865177
12	H3	-2.2510	1.4320	-0.8030	hc	1	MOL	0.0130890605865177
13	H4	-3.4560	-0.7650	-1.0100	hc	1	MOL	-0.0014480429946745
14	H5	-2.2440	-1.3320	-2.1200	hc	1	MOL	-0.0014480429946745
15	H6	-1.7400	-0.5950	0.8020	hc	1	MOL	0.013903235081947
16	H7	-1.9730	-2.2000	0.1830	hc	1	MOL	0.013903235081947
17	H8	0.2900	-2.2670	0.1280	h1	1	MOL	0.0718422229084886
18	H9	0.1350	-1.4190	-1.3890	h1	1	MOL	0.0718422229084886
19	H10	2.7690	2.1500	0.5070	h4	1	MOL	0.1170117401835705
20	H11	1.7150	0.5360	-1.4880	h4	1	MOL	0.2115805014385151
@<TRIPOS>BOND								
1	1	2	1					
2	1	10	1					
3	1	11	1					
4	1	12	1					
5	2	3	1					
6	2	13	1					
7	2	14	1					
8	3	4	1					
9	3	15	1					
10	3	16	1					
11	4	5	1					
12	4	17	1					
13	4	18	1					
14	5	6	1					
15	5	9	1					
16	6	7	2					
17	7	8	1					
18	8	9	2					
19	8	19	1					
20	9	20	1					
@<TRIPOS>SUBSTRUCTURE								
1	MOL	1	TEMP	0	****	****	0	ROOT
