@<TRIPOS>MOLECULE
MOL
   20    22     1     0     0
SMALL
No Charge or Current Charge


@<TRIPOS>ATOM
      1 C1          -2.2270     0.8270    -1.9340 c3         1 MOL       0.000000
      2 C2          -2.5140    -0.5600    -1.3600 c3         1 MOL       0.000000
      3 C3          -1.6390    -0.9380    -0.1590 c3         1 MOL       0.000000
      4 C4          -0.1490    -1.1550    -0.5000 c3         1 MOL       0.000000
      5 N1           0.7480    -0.2580     0.2090 n3         1 MOL       0.000000
      6 N2           1.0280    -0.4780     1.4770 n3         1 MOL       0.000000
      7 N3           1.7910     0.4500     1.8920 n3         1 MOL       0.000000
      8 C5           2.0260     1.3110     0.8780 c3         1 MOL       0.000000
      9 C6           1.3540     0.8620    -0.2140 c3         1 MOL       0.000000
     10 H1          -2.9060     1.0560    -2.7490 hc         1 MOL       0.000000
     11 H2          -1.2170     0.9060    -2.3260 hc         1 MOL       0.000000
     12 H3          -2.3470     1.5950    -1.1760 hc         1 MOL       0.000000
     13 H4          -3.5550    -0.6030    -1.0490 hc         1 MOL       0.000000
     14 H5          -2.4020    -1.3100    -2.1410 hc         1 MOL       0.000000
     15 H6          -1.7160    -0.1720     0.6060 hc         1 MOL       0.000000
     16 H7          -2.0280    -1.8480     0.2860 hc         1 MOL       0.000000
     17 H8           0.1600    -2.1590    -0.2480 h1         1 MOL       0.000000
     18 H9           0.0390    -1.0150    -1.5560 h1         1 MOL       0.000000
     19 H10          2.6500     2.1700     0.9980 h1         1 MOL       0.000000
     20 H11          1.2660     1.2280    -1.2140 h1         1 MOL       0.000000
@<TRIPOS>BOND
     1     1     2 1   
     2     1    10 1   
     3     1    11 1   
     4     1    12 1   
     5     2     3 1   
     6     2    13 1   
     7     2    14 1   
     8     3     4 1   
     9     3    15 1   
    10     3    16 1   
    11     4     5 1   
    12     4    17 1   
    13     4    18 1   
    14     5     6 1   
    15     5     9 1   
    16     6     7 1   
    17     6     7 1   
    18     7     8 1   
    19     8     9 1   
    20     8     9 1   
    21     8    19 1   
    22     9    20 1   
@<TRIPOS>SUBSTRUCTURE
     1 MOL         1 TEMP              0 ****  ****    0 ROOT
