@<TRIPOS>MOLECULE								
MOL								
20	20	1	0	0				
SMALL								
No	Charge	or	Current	Charge				
@<TRIPOS>ATOM								
1	C1	-3.6590	0.9330	-0.3190	c3	1	MOL	-0.0574796410713743
2	C2	-2.5320	0.7950	-1.3450	c3	1	MOL	0.0502276851611604
3	C3	-1.3660	-0.0870	-0.8870	c3	1	MOL	0.029434866161889
4	C4	-0.6190	0.4800	0.3240	c3	1	MOL	-0.1367489029942565
5	N1	0.7140	-0.0810	0.4650	na	1	MOL	0.3986932518358891
6	N2	1.7210	0.4320	-0.2110	nc	1	MOL	-0.2502196049522864
7	N3	2.7630	-0.2540	0.0310	nd	1	MOL	-0.3193359951280445
8	C5	2.4450	-1.2500	0.8850	cd	1	MOL	0.1155272094562996
9	C6	1.1210	-1.1480	1.1700	cc	1	MOL	-0.3665531218424377
10	H1	-4.4770	1.5220	-0.7210	hc	1	MOL	0.0130890605865177
11	H2	-3.3250	1.4230	0.5900	hc	1	MOL	0.0130890605865177
12	H3	-4.0580	-0.0400	-0.0440	hc	1	MOL	0.0130890605865177
13	H4	-2.9370	0.3740	-2.2600	hc	1	MOL	-0.0014480429946745
14	H5	-2.1520	1.7800	-1.6040	hc	1	MOL	-0.0014480429946745
15	H6	-1.7190	-1.0900	-0.6630	hc	1	MOL	0.013903235081947
16	H7	-0.6550	-0.1770	-1.7010	hc	1	MOL	0.013903235081947
17	H8	-0.4890	1.5480	0.2230	h1	1	MOL	0.0718422229084886
18	H9	-1.1490	0.2950	1.2490	h1	1	MOL	0.0718422229084886
19	H10	3.1720	-1.9510	1.2330	h4	1	MOL	0.1170117401835705
20	H11	0.4640	-1.7160	1.7930	h4	1	MOL	0.2115805014385151
@<TRIPOS>BOND								
1	1	2	1					
2	1	10	1					
3	1	11	1					
4	1	12	1					
5	2	3	1					
6	2	13	1					
7	2	14	1					
8	3	4	1					
9	3	15	1					
10	3	16	1					
11	4	5	1					
12	4	17	1					
13	4	18	1					
14	5	6	1					
15	5	9	1					
16	6	7	2					
17	7	8	1					
18	8	9	2					
19	8	19	1					
20	9	20	1					
@<TRIPOS>SUBSTRUCTURE								
1	MOL	1	TEMP	0	****	****	0	ROOT
