@<TRIPOS>MOLECULE
MOL
   20    22     1     0     0
SMALL
No Charge or Current Charge


@<TRIPOS>ATOM
      1 C1          -2.5060     0.9130    -2.2320 c3         1 MOL       0.000000
      2 C2          -2.6370    -0.3750    -1.4170 c3         1 MOL       0.000000
      3 C3          -1.6500    -0.4790    -0.2470 c3         1 MOL       0.000000
      4 C4          -0.2080    -0.7680    -0.6900 c3         1 MOL       0.000000
      5 N1           0.7850    -0.2150     0.2150 n3         1 MOL       0.000000
      6 N2           1.1250    -0.8690     1.3060 n3         1 MOL       0.000000
      7 N3           1.9570    -0.1650     1.9590 n3         1 MOL       0.000000
      8 C5           2.1740     0.9890     1.2910 c3         1 MOL       0.000000
      9 C6           1.4180     0.9670     0.1630 c3         1 MOL       0.000000
     10 H1          -3.2450     0.9420    -3.0260 hc         1 MOL       0.000000
     11 H2          -1.5300     1.0100    -2.6980 hc         1 MOL       0.000000
     12 H3          -2.6610     1.7860    -1.6040 hc         1 MOL       0.000000
     13 H4          -3.6460    -0.4330    -1.0190 hc         1 MOL       0.000000
     14 H5          -2.5230    -1.2370    -2.0720 hc         1 MOL       0.000000
     15 H6          -1.6640     0.4550     0.3080 hc         1 MOL       0.000000
     16 H7          -1.9660    -1.2510     0.4460 hc         1 MOL       0.000000
     17 H8          -0.0250    -1.8300    -0.7550 h1         1 MOL       0.000000
     18 H9          -0.0070    -0.3400    -1.6630 h1         1 MOL       0.000000
     19 H10          2.8470     1.7350     1.6540 h1         1 MOL       0.000000
     20 H11          1.2870     1.6600    -0.6400 h1         1 MOL       0.000000
@<TRIPOS>BOND
     1     1     2 1   
     2     1    10 1   
     3     1    11 1   
     4     1    12 1   
     5     2     3 1   
     6     2    13 1   
     7     2    14 1   
     8     3     4 1   
     9     3    15 1   
    10     3    16 1   
    11     4     5 1   
    12     4    17 1   
    13     4    18 1   
    14     5     6 1   
    15     5     9 1   
    16     6     7 1   
    17     6     7 1   
    18     7     8 1   
    19     8     9 1   
    20     8     9 1   
    21     8    19 1   
    22     9    20 1   
@<TRIPOS>SUBSTRUCTURE
     1 MOL         1 TEMP              0 ****  ****    0 ROOT
