@<TRIPOS>MOLECULE								
MOL								
20	20	1	0	0				
SMALL								
No	Charge	or	Current	Charge				
@<TRIPOS>ATOM								
1	C1	-3.6090	1.0090	-0.4080	c3	1	MOL	-0.0574796410713743
2	C2	-2.4670	0.9540	-1.4250	c3	1	MOL	0.0502276851611604
3	C3	-1.2780	0.0850	-1.0020	c3	1	MOL	0.029434866161889
4	C4	-0.5400	0.6230	0.2250	c3	1	MOL	-0.1367489029942565
5	N1	0.7080	-0.0800	0.4680	na	1	MOL	0.3986932518358891
6	N2	1.8010	0.2710	-0.1770	nc	1	MOL	-0.2502196049522864
7	N3	2.7400	-0.5140	0.1600	nd	1	MOL	-0.3193359951280445
8	C5	2.2650	-1.4150	1.0470	cd	1	MOL	0.1155272094562996
9	C6	0.9490	-1.1430	1.2510	cc	1	MOL	-0.3665531218424377
10	H1	-4.4450	1.5790	-0.7990	hc	1	MOL	0.0130890605865177
11	H2	-3.3060	1.4790	0.5230	hc	1	MOL	0.0130890605865177
12	H3	-3.9710	0.0110	-0.1730	hc	1	MOL	0.0130890605865177
13	H4	-2.8500	0.5670	-2.3640	hc	1	MOL	-0.0014480429946745
14	H5	-2.1160	1.9630	-1.6340	hc	1	MOL	-0.0014480429946745
15	H6	-1.6090	-0.9320	-0.8070	hc	1	MOL	0.013903235081947
16	H7	-0.5660	0.0340	-1.8190	hc	1	MOL	0.013903235081947
17	H8	-0.2860	1.6650	0.0880	h1	1	MOL	0.0718422229084886
18	H9	-1.1380	0.5400	1.1230	h1	1	MOL	0.0718422229084886
19	H10	2.8850	-2.1730	1.4710	h4	1	MOL	0.1170117401835705
20	H11	0.2000	-1.5940	1.8640	h4	1	MOL	0.2115805014385151
@<TRIPOS>BOND								
1	1	2	1					
2	1	10	1					
3	1	11	1					
4	1	12	1					
5	2	3	1					
6	2	13	1					
7	2	14	1					
8	3	4	1					
9	3	15	1					
10	3	16	1					
11	4	5	1					
12	4	17	1					
13	4	18	1					
14	5	6	1					
15	5	9	1					
16	6	7	2					
17	7	8	1					
18	8	9	2					
19	8	19	1					
20	9	20	1					
@<TRIPOS>SUBSTRUCTURE								
1	MOL	1	TEMP	0	****	****	0	ROOT
