@<TRIPOS>MOLECULE								
MOL								
20	20	1	0	0				
SMALL								
No	Charge	or	Current	Charge				
@<TRIPOS>ATOM								
1	C1	-2.4140	0.8770	-2.1510	c3	1	MOL	-0.0574796410713743
2	C2	-2.6120	-0.4390	-1.3950	c3	1	MOL	0.0502276851611604
3	C3	-1.6630	-0.6240	-0.2040	c3	1	MOL	0.029434866161889
4	C4	-0.2080	-0.9140	-0.6160	c3	1	MOL	-0.1367489029942565
5	N1	0.7700	-0.2360	0.2160	na	1	MOL	0.3986932518358891
6	N2	1.1490	-0.7660	1.3600	nc	1	MOL	-0.2502196049522864
7	N3	1.9560	0.0330	1.9290	nd	1	MOL	-0.3193359951280445
8	C5	2.1160	1.1260	1.1510	cd	1	MOL	0.1155272094562996
9	C6	1.3510	0.9620	0.0400	cc	1	MOL	-0.3665531218424377
10	H1	-3.1210	0.9610	-2.9700	hc	1	MOL	0.0130890605865177
11	H2	-1.4180	0.9610	-2.5760	hc	1	MOL	0.0130890605865177
12	H3	-2.5660	1.7280	-1.4940	hc	1	MOL	0.0130890605865177
13	H4	-3.6340	-0.4790	-1.0280	hc	1	MOL	-0.0014480429946745
14	H5	-2.5080	-1.2760	-2.0830	hc	1	MOL	-0.0014480429946745
15	H6	-1.6820	0.2760	0.4020	hc	1	MOL	0.013903235081947
16	H7	-2.0170	-1.4270	0.4320	hc	1	MOL	0.013903235081947
17	H8	0.0110	-1.9700	-0.5610	h1	1	MOL	0.0718422229084886
18	H9	-0.0200	-0.5950	-1.6320	h1	1	MOL	0.0718422229084886
19	H10	2.7590	1.9310	1.4320	h4	1	MOL	0.1170117401835705
20	H11	1.1830	1.5680	-0.8240	h4	1	MOL	0.2115805014385151
@<TRIPOS>BOND								
1	1	2	1					
2	1	10	1					
3	1	11	1					
4	1	12	1					
5	2	3	1					
6	2	13	1					
7	2	14	1					
8	3	4	1					
9	3	15	1					
10	3	16	1					
11	4	5	1					
12	4	17	1					
13	4	18	1					
14	5	6	1					
15	5	9	1					
16	6	7	2					
17	7	8	1					
18	8	9	2					
19	8	19	1					
20	9	20	1					
@<TRIPOS>SUBSTRUCTURE								
1	MOL	1	TEMP	0	****	****	0	ROOT
