@<TRIPOS>MOLECULE								
MOL								
20	20	1	0	0				
SMALL								
No	Charge	or	Current	Charge				
@<TRIPOS>ATOM								
1	C1	-3.6210	0.9920	-0.3980	c3	1	MOL	-0.0574796410713743
2	C2	-2.4350	0.6060	-1.2850	c3	1	MOL	0.0502276851611604
3	C3	-1.4990	-0.4300	-0.6560	c3	1	MOL	0.029434866161889
4	C4	-0.7400	0.0950	0.5810	c3	1	MOL	-0.1367489029942565
5	N1	0.6900	-0.1550	0.5190	na	1	MOL	0.3986932518358891
6	N2	1.4730	0.6630	-0.1530	nc	1	MOL	-0.2502196049522864
7	N3	2.6600	0.2110	-0.1160	nd	1	MOL	-0.3193359951280445
8	C5	2.6700	-0.9390	0.5920	cd	1	MOL	0.1155272094562996
9	C6	1.3990	-1.1860	1.0050	cc	1	MOL	-0.3665531218424377
10	H1	-4.2590	1.7140	-0.8960	hc	1	MOL	0.0130890605865177
11	H2	-3.3000	1.4380	0.5400	hc	1	MOL	0.0130890605865177
12	H3	-4.2280	0.1230	-0.1590	hc	1	MOL	0.0130890605865177
13	H4	-2.8120	0.2050	-2.2210	hc	1	MOL	-0.0014480429946745
14	H5	-1.8600	1.4920	-1.5390	hc	1	MOL	-0.0014480429946745
15	H6	-2.0580	-1.3250	-0.3960	hc	1	MOL	0.013903235081947
16	H7	-0.7670	-0.7260	-1.3980	hc	1	MOL	0.013903235081947
17	H8	-0.8460	1.1660	0.6690	h1	1	MOL	0.0718422229084886
18	H9	-1.1060	-0.3460	1.4980	h1	1	MOL	0.0718422229084886
19	H10	3.5680	-1.4930	0.7580	h4	1	MOL	0.1170117401835705
20	H11	0.9600	-1.9700	1.5820	h4	1	MOL	0.2115805014385151
@<TRIPOS>BOND								
1	1	2	1					
2	1	10	1					
3	1	11	1					
4	1	12	1					
5	2	3	1					
6	2	13	1					
7	2	14	1					
8	3	4	1					
9	3	15	1					
10	3	16	1					
11	4	5	1					
12	4	17	1					
13	4	18	1					
14	5	6	1					
15	5	9	1					
16	6	7	2					
17	7	8	1					
18	8	9	2					
19	8	19	1					
20	9	20	1					
@<TRIPOS>SUBSTRUCTURE								
1	MOL	1	TEMP	0	****	****	0	ROOT
