@<TRIPOS>MOLECULE
MOL
   20    22     1     0     0
SMALL
No Charge or Current Charge


@<TRIPOS>ATOM
      1 C1          -2.3710     1.2750    -0.5350 c3         1 MOL       0.000000
      2 C2          -1.9100    -0.0680    -1.1060 c3         1 MOL       0.000000
      3 C3          -1.7880    -1.1840    -0.0640 c3         1 MOL       0.000000
      4 C4          -0.6390    -1.0610     0.9590 c3         1 MOL       0.000000
      5 N1           0.5520    -0.3880     0.4700 n3         1 MOL       0.000000
      6 N2           0.8300     0.8430     0.8500 n3         1 MOL       0.000000
      7 N3           1.9120     1.2040     0.2910 n3         1 MOL       0.000000
      8 C5           2.3720     0.1930    -0.4770 c3         1 MOL       0.000000
      9 C6           1.5000    -0.8430    -0.3660 c3         1 MOL       0.000000
     10 H1          -2.4780     2.0110    -1.3250 hc         1 MOL       0.000000
     11 H2          -1.6660     1.6690     0.1870 hc         1 MOL       0.000000
     12 H3          -3.3370     1.1740    -0.0460 hc         1 MOL       0.000000
     13 H4          -2.6260    -0.3980    -1.8540 hc         1 MOL       0.000000
     14 H5          -0.9660     0.0580    -1.6250 hc         1 MOL       0.000000
     15 H6          -2.7140    -1.2720     0.4980 hc         1 MOL       0.000000
     16 H7          -1.6690    -2.1260    -0.5950 hc         1 MOL       0.000000
     17 H8          -0.9500    -0.4800     1.8150 h1         1 MOL       0.000000
     18 H9          -0.3510    -2.0410     1.3160 h1         1 MOL       0.000000
     19 H10          3.2770     0.2740    -1.0380 h1         1 MOL       0.000000
     20 H11          1.4770    -1.8230    -0.7910 h1         1 MOL       0.000000
@<TRIPOS>BOND
     1     1     2 1   
     2     1    10 1   
     3     1    11 1   
     4     1    12 1   
     5     2     3 1   
     6     2    13 1   
     7     2    14 1   
     8     3     4 1   
     9     3    15 1   
    10     3    16 1   
    11     4     5 1   
    12     4    17 1   
    13     4    18 1   
    14     5     6 1   
    15     5     9 1   
    16     6     7 1   
    17     6     7 1   
    18     7     8 1   
    19     8     9 1   
    20     8     9 1   
    21     8    19 1   
    22     9    20 1   
@<TRIPOS>SUBSTRUCTURE
     1 MOL         1 TEMP              0 ****  ****    0 ROOT
