@<TRIPOS>MOLECULE
MOL
   20    22     1     0     0
SMALL
No Charge or Current Charge


@<TRIPOS>ATOM
      1 C1          -2.4590     1.2580    -0.5100 c3         1 MOL       0.000000
      2 C2          -1.9140    -0.0380    -1.1120 c3         1 MOL       0.000000
      3 C3          -1.7500    -1.1790    -0.1020 c3         1 MOL       0.000000
      4 C4          -0.6730    -0.9790     0.9760 c3         1 MOL       0.000000
      5 N1           0.5530    -0.3710     0.4900 n3         1 MOL       0.000000
      6 N2           0.8350     0.8860     0.7680 n3         1 MOL       0.000000
      7 N3           1.9410     1.1860     0.2200 n3         1 MOL       0.000000
      8 C5           2.4120     0.1050    -0.4390 c3         1 MOL       0.000000
      9 C6           1.5230    -0.9070    -0.2690 c3         1 MOL       0.000000
     10 H1          -2.5920     2.0110    -1.2800 hc         1 MOL       0.000000
     11 H2          -1.7880     1.6700     0.2350 hc         1 MOL       0.000000
     12 H3          -3.4260     1.0930    -0.0420 hc         1 MOL       0.000000
     13 H4          -2.5930    -0.3820    -1.8870 hc         1 MOL       0.000000
     14 H5          -0.9660     0.1570    -1.6020 hc         1 MOL       0.000000
     15 H6          -2.6910    -1.3620     0.4110 hc         1 MOL       0.000000
     16 H7          -1.5230    -2.0900    -0.6510 hc         1 MOL       0.000000
     17 H8          -1.0240    -0.3180     1.7550 h1         1 MOL       0.000000
     18 H9          -0.4260    -1.9270     1.4370 h1         1 MOL       0.000000
     19 H10          3.3380     0.1270    -0.9710 h1         1 MOL       0.000000
     20 H11          1.5010    -1.9200    -0.6080 h1         1 MOL       0.000000
@<TRIPOS>BOND
     1     1     2 1   
     2     1    10 1   
     3     1    11 1   
     4     1    12 1   
     5     2     3 1   
     6     2    13 1   
     7     2    14 1   
     8     3     4 1   
     9     3    15 1   
    10     3    16 1   
    11     4     5 1   
    12     4    17 1   
    13     4    18 1   
    14     5     6 1   
    15     5     9 1   
    16     6     7 1   
    17     6     7 1   
    18     7     8 1   
    19     8     9 1   
    20     8     9 1   
    21     8    19 1   
    22     9    20 1   
@<TRIPOS>SUBSTRUCTURE
     1 MOL         1 TEMP              0 ****  ****    0 ROOT
