@<TRIPOS>MOLECULE
MOL
   20    22     1     0     0
SMALL
No Charge or Current Charge


@<TRIPOS>ATOM
      1 C1          -2.1620     0.7810    -1.7900 c3         1 MOL       0.000000
      2 C2          -2.4690    -0.6330    -1.2940 c3         1 MOL       0.000000
      3 C3          -1.6220    -1.0810    -0.0980 c3         1 MOL       0.000000
      4 C4          -0.1230    -1.2680    -0.4070 c3         1 MOL       0.000000
      5 N1           0.7310    -0.2610     0.2060 n3         1 MOL       0.000000
      6 N2           0.8650    -0.2220     1.5150 n3         1 MOL       0.000000
      7 N3           1.6560     0.7270     1.8150 n3         1 MOL       0.000000
      8 C5           2.0620     1.3350     0.6800 c3         1 MOL       0.000000
      9 C6           1.4700     0.7020    -0.3660 c3         1 MOL       0.000000
     10 H1          -2.8210     1.0550    -2.6080 hc         1 MOL       0.000000
     11 H2          -1.1430     0.8730    -2.1530 hc         1 MOL       0.000000
     12 H3          -2.2950     1.5100    -0.9960 hc         1 MOL       0.000000
     13 H4          -3.5160    -0.6850    -1.0080 hc         1 MOL       0.000000
     14 H5          -2.3440    -1.3420    -2.1110 hc         1 MOL       0.000000
     15 H6          -1.7280    -0.3790     0.7210 hc         1 MOL       0.000000
     16 H7          -2.0120    -2.0270     0.2620 hc         1 MOL       0.000000
     17 H8           0.2200    -2.2260    -0.0440 h1         1 MOL       0.000000
     18 H9           0.0700    -1.2360    -1.4710 h1         1 MOL       0.000000
     19 H10          2.7370     2.1630     0.6910 h1         1 MOL       0.000000
     20 H11          1.5150     0.8480    -1.4230 h1         1 MOL       0.000000
@<TRIPOS>BOND
     1     1     2 1   
     2     1    10 1   
     3     1    11 1   
     4     1    12 1   
     5     2     3 1   
     6     2    13 1   
     7     2    14 1   
     8     3     4 1   
     9     3    15 1   
    10     3    16 1   
    11     4     5 1   
    12     4    17 1   
    13     4    18 1   
    14     5     6 1   
    15     5     9 1   
    16     6     7 1   
    17     6     7 1   
    18     7     8 1   
    19     8     9 1   
    20     8     9 1   
    21     8    19 1   
    22     9    20 1   
@<TRIPOS>SUBSTRUCTURE
     1 MOL         1 TEMP              0 ****  ****    0 ROOT
