@<TRIPOS>MOLECULE
MOL
   20    22     1     0     0
SMALL
No Charge or Current Charge


@<TRIPOS>ATOM
      1 C1          -2.0450     0.8580    -1.0950 c3         1 MOL       0.000000
      2 C2          -2.0550    -0.6720    -1.1500 c3         1 MOL       0.000000
      3 C3          -1.6090    -1.3740     0.1430 c3         1 MOL       0.000000
      4 C4          -0.1040    -1.5960     0.3000 c3         1 MOL       0.000000
      5 N1           0.6870    -0.3760     0.2970 n3         1 MOL       0.000000
      6 N2           0.5870     0.4800     1.2920 n3         1 MOL       0.000000
      7 N3           1.3600     1.4620     1.0600 n3         1 MOL       0.000000
      8 C5           1.9970     1.2530    -0.1130 c3         1 MOL       0.000000
      9 C6           1.5670     0.0660    -0.6140 c3         1 MOL       0.000000
     10 H1          -2.4210     1.2700    -2.0260 hc         1 MOL       0.000000
     11 H2          -1.0560     1.2630    -0.9280 hc         1 MOL       0.000000
     12 H3          -2.6850     1.2160    -0.2940 hc         1 MOL       0.000000
     13 H4          -3.0680    -0.9950    -1.3740 hc         1 MOL       0.000000
     14 H5          -1.4440    -1.0160    -1.9830 hc         1 MOL       0.000000
     15 H6          -1.9770    -0.8300     1.0070 hc         1 MOL       0.000000
     16 H7          -2.0580    -2.3640     0.1870 hc         1 MOL       0.000000
     17 H8           0.0970    -2.1130     1.2290 h1         1 MOL       0.000000
     18 H9           0.2720    -2.2080    -0.5090 h1         1 MOL       0.000000
     19 H10          2.7040     1.9510    -0.5060 h1         1 MOL       0.000000
     20 H11          1.8050    -0.4780    -1.5020 h1         1 MOL       0.000000
@<TRIPOS>BOND
     1     1     2 1   
     2     1    10 1   
     3     1    11 1   
     4     1    12 1   
     5     2     3 1   
     6     2    13 1   
     7     2    14 1   
     8     3     4 1   
     9     3    15 1   
    10     3    16 1   
    11     4     5 1   
    12     4    17 1   
    13     4    18 1   
    14     5     6 1   
    15     5     9 1   
    16     6     7 1   
    17     6     7 1   
    18     7     8 1   
    19     8     9 1   
    20     8     9 1   
    21     8    19 1   
    22     9    20 1   
@<TRIPOS>SUBSTRUCTURE
     1 MOL         1 TEMP              0 ****  ****    0 ROOT
