@<TRIPOS>MOLECULE
MOL
   20    22     1     0     0
SMALL
No Charge or Current Charge


@<TRIPOS>ATOM
      1 C1          -2.0570     0.9210    -0.9430 c3         1 MOL       0.000000
      2 C2          -1.9450    -0.5920    -1.1420 c3         1 MOL       0.000000
      3 C3          -1.6570    -1.3950     0.1380 c3         1 MOL       0.000000
      4 C4          -0.1810    -1.5640     0.5320 c3         1 MOL       0.000000
      5 N1           0.6550    -0.3900     0.3500 n3         1 MOL       0.000000
      6 N2           0.6550     0.5680     1.2540 n3         1 MOL       0.000000
      7 N3           1.4460     1.4870     0.8710 n3         1 MOL       0.000000
      8 C5           1.9880     1.1340    -0.3150 c3         1 MOL       0.000000
      9 C6           1.4850    -0.0810    -0.6580 c3         1 MOL       0.000000
     10 H1          -2.2970     1.4070    -1.8840 hc         1 MOL       0.000000
     11 H2          -1.1440     1.3610    -0.5650 hc         1 MOL       0.000000
     12 H3          -2.8510     1.1550    -0.2400 hc         1 MOL       0.000000
     13 H4          -2.8860    -0.9500    -1.5520 hc         1 MOL       0.000000
     14 H5          -1.1930    -0.8120    -1.8970 hc         1 MOL       0.000000
     15 H6          -2.1880    -0.9340     0.9650 hc         1 MOL       0.000000
     16 H7          -2.0570    -2.4000     0.0400 hc         1 MOL       0.000000
     17 H8          -0.1000    -1.8580     1.5680 h1         1 MOL       0.000000
     18 H9           0.2690    -2.3460    -0.0680 h1         1 MOL       0.000000
     19 H10          2.6900     1.7570    -0.8240 h1         1 MOL       0.000000
     20 H11          1.6440    -0.7230    -1.4960 h1         1 MOL       0.000000
@<TRIPOS>BOND
     1     1     2 1   
     2     1    10 1   
     3     1    11 1   
     4     1    12 1   
     5     2     3 1   
     6     2    13 1   
     7     2    14 1   
     8     3     4 1   
     9     3    15 1   
    10     3    16 1   
    11     4     5 1   
    12     4    17 1   
    13     4    18 1   
    14     5     6 1   
    15     5     9 1   
    16     6     7 1   
    17     6     7 1   
    18     7     8 1   
    19     8     9 1   
    20     8     9 1   
    21     8    19 1   
    22     9    20 1   
@<TRIPOS>SUBSTRUCTURE
     1 MOL         1 TEMP              0 ****  ****    0 ROOT
