@<TRIPOS>MOLECULE
MOL
   20    22     1     0     0
SMALL
No Charge or Current Charge


@<TRIPOS>ATOM
      1 C1          -3.5620     1.0510    -0.4190 c3         1 MOL       0.000000
      2 C2          -2.3760     0.5650    -1.2530 c3         1 MOL       0.000000
      3 C3          -1.5400    -0.5220    -0.5700 c3         1 MOL       0.000000
      4 C4          -0.7570    -0.0220     0.6650 c3         1 MOL       0.000000
      5 N1           0.6800    -0.1850     0.5320 n3         1 MOL       0.000000
      6 N2           1.3890     0.7150    -0.1170 n3         1 MOL       0.000000
      7 N3           2.5990     0.3280    -0.1570 n3         1 MOL       0.000000
      8 C5           2.7000    -0.8610     0.4750 c3         1 MOL       0.000000
      9 C6           1.4630    -1.2030     0.9220 c3         1 MOL       0.000000
     10 H1          -4.1260     1.8090    -0.9520 hc         1 MOL       0.000000
     11 H2          -3.2470     1.4880     0.5240 hc         1 MOL       0.000000
     12 H3          -4.2400     0.2330    -0.1920 hc         1 MOL       0.000000
     13 H4          -2.7480     0.1700    -2.1950 hc         1 MOL       0.000000
     14 H5          -1.7310     1.4030    -1.5050 hc         1 MOL       0.000000
     15 H6          -2.1860    -1.3470    -0.2820 hc         1 MOL       0.000000
     16 H7          -0.8290    -0.9210    -1.2840 hc         1 MOL       0.000000
     17 H8          -0.9230     1.0320     0.8310 h1         1 MOL       0.000000
     18 H9          -1.0540    -0.5440     1.5640 h1         1 MOL       0.000000
     19 H10          3.6320    -1.3750     0.5700 h1         1 MOL       0.000000
     20 H11          1.0910    -2.0450     1.4650 h1         1 MOL       0.000000
@<TRIPOS>BOND
     1     1     2 1   
     2     1    10 1   
     3     1    11 1   
     4     1    12 1   
     5     2     3 1   
     6     2    13 1   
     7     2    14 1   
     8     3     4 1   
     9     3    15 1   
    10     3    16 1   
    11     4     5 1   
    12     4    17 1   
    13     4    18 1   
    14     5     6 1   
    15     5     9 1   
    16     6     7 1   
    17     6     7 1   
    18     7     8 1   
    19     8     9 1   
    20     8     9 1   
    21     8    19 1   
    22     9    20 1   
@<TRIPOS>SUBSTRUCTURE
     1 MOL         1 TEMP              0 ****  ****    0 ROOT
