@<TRIPOS>MOLECULE								
MOL								
20	20	1	0	0				
SMALL								
No	Charge	or	Current	Charge				
@<TRIPOS>ATOM								
1	C1	-3.6350	1.0080	-0.3960	c3	1	MOL	-0.0574796410713743
2	C2	-2.4630	0.6960	-1.3280	c3	1	MOL	0.0502276851611604
3	C3	-1.4560	-0.3040	-0.7510	c3	1	MOL	0.029434866161889
4	C4	-0.7140	0.2240	0.4900	c3	1	MOL	-0.1367489029942565
5	N1	0.6920	-0.1410	0.5070	na	1	MOL	0.3986932518358891
6	N2	1.5680	0.5820	-0.1600	nc	1	MOL	-0.2502196049522864
7	N3	2.7120	0.0420	-0.0450	nd	1	MOL	-0.3193359951280445
8	C5	2.5980	-1.0710	0.7130	cd	1	MOL	0.1155272094562996
9	C6	1.2940	-1.1980	1.0720	cc	1	MOL	-0.3665531218424377
10	H1	-4.3260	1.7030	-0.8620	hc	1	MOL	0.0130890605865177
11	H2	-3.3050	1.4570	0.5360	hc	1	MOL	0.0130890605865177
12	H3	-4.1890	0.1060	-0.1510	hc	1	MOL	0.0130890605865177
13	H4	-2.8490	0.2940	-2.2600	hc	1	MOL	-0.0014480429946745
14	H5	-1.9400	1.6140	-1.5820	hc	1	MOL	-0.0014480429946745
15	H6	-1.9500	-1.2440	-0.5190	hc	1	MOL	0.013903235081947
16	H7	-0.7160	-0.5200	-1.5140	hc	1	MOL	0.013903235081947
17	H8	-0.7360	1.3050	0.5120	h1	1	MOL	0.0718422229084886
18	H9	-1.1570	-0.1320	1.4110	h1	1	MOL	0.0718422229084886
19	H10	3.4400	-1.6850	0.9470	h4	1	MOL	0.1170117401835705
20	H11	0.7680	-1.9180	1.6610	h4	1	MOL	0.2115805014385151
@<TRIPOS>BOND								
1	1	2	1					
2	1	10	1					
3	1	11	1					
4	1	12	1					
5	2	3	1					
6	2	13	1					
7	2	14	1					
8	3	4	1					
9	3	15	1					
10	3	16	1					
11	4	5	1					
12	4	17	1					
13	4	18	1					
14	5	6	1					
15	5	9	1					
16	6	7	2					
17	7	8	1					
18	8	9	2					
19	8	19	1					
20	9	20	1					
@<TRIPOS>SUBSTRUCTURE								
1	MOL	1	TEMP	0	****	****	0	ROOT
