@<TRIPOS>MOLECULE
MOL
   20    22     1     0     0
SMALL
No Charge or Current Charge


@<TRIPOS>ATOM
      1 C1          -2.3220     0.8590    -2.0460 c3         1 MOL       0.000000
      2 C2          -2.5690    -0.4960    -1.3830 c3         1 MOL       0.000000
      3 C3          -1.6570    -0.7800    -0.1830 c3         1 MOL       0.000000
      4 C4          -0.1830    -1.0370    -0.5630 c3         1 MOL       0.000000
      5 N1           0.7600    -0.2490     0.2110 n3         1 MOL       0.000000
      6 N2           1.1300    -0.6530     1.4090 n3         1 MOL       0.000000
      7 N3           1.9050     0.2210     1.9100 n3         1 MOL       0.000000
      8 C5           2.0530     1.2340     1.0290 c3         1 MOL       0.000000
      9 C6           1.3150     0.9400    -0.0730 c3         1 MOL       0.000000
     10 H1          -3.0120     1.0180    -2.8690 hc         1 MOL       0.000000
     11 H2          -1.3170     0.9420    -2.4500 hc         1 MOL       0.000000
     12 H3          -2.4610     1.6700    -1.3360 hc         1 MOL       0.000000
     13 H4          -3.6000    -0.5370    -1.0450 hc         1 MOL       0.000000
     14 H5          -2.4620    -1.2900    -2.1200 hc         1 MOL       0.000000
     15 H6          -1.7010     0.0570     0.5050 hc         1 MOL       0.000000
     16 H7          -2.0330    -1.6400     0.3610 hc         1 MOL       0.000000
     17 H8           0.0830    -2.0720    -0.4110 h1         1 MOL       0.000000
     18 H9          -0.0000    -0.8050    -1.6040 h1         1 MOL       0.000000
     19 H10          2.6690     2.0810     1.2390 h1         1 MOL       0.000000
     20 H11          1.1500     1.4520    -0.9960 h1         1 MOL       0.000000
@<TRIPOS>BOND
     1     1     2 1   
     2     1    10 1   
     3     1    11 1   
     4     1    12 1   
     5     2     3 1   
     6     2    13 1   
     7     2    14 1   
     8     3     4 1   
     9     3    15 1   
    10     3    16 1   
    11     4     5 1   
    12     4    17 1   
    13     4    18 1   
    14     5     6 1   
    15     5     9 1   
    16     6     7 1   
    17     6     7 1   
    18     7     8 1   
    19     8     9 1   
    20     8     9 1   
    21     8    19 1   
    22     9    20 1   
@<TRIPOS>SUBSTRUCTURE
     1 MOL         1 TEMP              0 ****  ****    0 ROOT
