@<TRIPOS>MOLECULE
MOL
   20    22     1     0     0
SMALL
No Charge or Current Charge


@<TRIPOS>ATOM
      1 C1          -3.5970     0.9610    -0.3330 c3         1 MOL       0.000000
      2 C2          -2.4210     0.4980    -1.1950 c3         1 MOL       0.000000
      3 C3          -1.5410    -0.5630    -0.5260 c3         1 MOL       0.000000
      4 C4          -0.7390    -0.0350     0.6840 c3         1 MOL       0.000000
      5 N1           0.6980    -0.1650     0.5160 n3         1 MOL       0.000000
      6 N2           1.3680     0.7470    -0.1580 n3         1 MOL       0.000000
      7 N3           2.5850     0.3900    -0.2260 n3         1 MOL       0.000000
      8 C5           2.7320    -0.7920     0.4110 c3         1 MOL       0.000000
      9 C6           1.5150    -1.1600     0.8920 c3         1 MOL       0.000000
     10 H1          -4.1930     1.7010    -0.8580 hc         1 MOL       0.000000
     11 H2          -3.2680     1.4130     0.5980 hc         1 MOL       0.000000
     12 H3          -4.2480     0.1280    -0.0830 hc         1 MOL       0.000000
     13 H4          -2.8070     0.0870    -2.1240 hc         1 MOL       0.000000
     14 H5          -1.8030     1.3490    -1.4690 hc         1 MOL       0.000000
     15 H6          -2.1590    -1.4020    -0.2160 hc         1 MOL       0.000000
     16 H7          -0.8390    -0.9500    -1.2560 hc         1 MOL       0.000000
     17 H8          -0.9260     1.0160     0.8480 h1         1 MOL       0.000000
     18 H9          -1.0000    -0.5580     1.5940 h1         1 MOL       0.000000
     19 H10          3.6780    -1.2810     0.4850 h1         1 MOL       0.000000
     20 H11          1.1790    -2.0060     1.4510 h1         1 MOL       0.000000
@<TRIPOS>BOND
     1     1     2 1   
     2     1    10 1   
     3     1    11 1   
     4     1    12 1   
     5     2     3 1   
     6     2    13 1   
     7     2    14 1   
     8     3     4 1   
     9     3    15 1   
    10     3    16 1   
    11     4     5 1   
    12     4    17 1   
    13     4    18 1   
    14     5     6 1   
    15     5     9 1   
    16     6     7 1   
    17     6     7 1   
    18     7     8 1   
    19     8     9 1   
    20     8     9 1   
    21     8    19 1   
    22     9    20 1   
@<TRIPOS>SUBSTRUCTURE
     1 MOL         1 TEMP              0 ****  ****    0 ROOT
