@<TRIPOS>MOLECULE								
MOL								
20	20	1	0	0				
SMALL								
No	Charge	or	Current	Charge				
@<TRIPOS>ATOM								
1	C1	-1.9790	0.7800	-1.3890	c3	1	MOL	-0.0574796410713743
2	C2	-2.2260	-0.7230	-1.2390	c3	1	MOL	0.0502276851611604
3	C3	-1.5540	-1.3850	-0.0290	c3	1	MOL	0.029434866161889
4	C4	-0.0310	-1.5250	-0.0970	c3	1	MOL	-0.1367489029942565
5	N1	0.6980	-0.3070	0.2320	na	1	MOL	0.3986932518358891
6	N2	0.4850	0.3110	1.3750	nc	1	MOL	-0.2502196049522864
7	N3	1.2740	1.3040	1.4530	nd	1	MOL	-0.3193359951280445
8	C5	2.0360	1.3490	0.3400	cd	1	MOL	0.1155272094562996
9	C6	1.6740	0.3080	-0.4540	cc	1	MOL	-0.3665531218424377
10	H1	-2.5680	1.1800	-2.2080	hc	1	MOL	0.0130890605865177
11	H2	-0.9390	1.0080	-1.5920	hc	1	MOL	0.0130890605865177
12	H3	-2.2600	1.3130	-0.4860	hc	1	MOL	0.0130890605865177
13	H4	-3.2960	-0.8890	-1.1500	hc	1	MOL	-0.0014480429946745
14	H5	-1.9170	-1.2380	-2.1470	hc	1	MOL	-0.0014480429946745
15	H6	-1.8180	-0.8680	0.8850	hc	1	MOL	0.013903235081947
16	H7	-1.9450	-2.3950	0.0620	hc	1	MOL	0.013903235081947
17	H8	0.2940	-2.2920	0.5950	h1	1	MOL	0.0718422229084886
18	H9	0.2870	-1.8210	-1.0890	h1	1	MOL	0.0718422229084886
19	H10	2.7730	2.1070	0.1880	h4	1	MOL	0.1170117401835705
20	H11	2.0120	-0.0320	-1.4090	h4	1	MOL	0.2115805014385151
@<TRIPOS>BOND								
1	1	2	1					
2	1	10	1					
3	1	11	1					
4	1	12	1					
5	2	3	1					
6	2	13	1					
7	2	14	1					
8	3	4	1					
9	3	15	1					
10	3	16	1					
11	4	5	1					
12	4	17	1					
13	4	18	1					
14	5	6	1					
15	5	9	1					
16	6	7	2					
17	7	8	1					
18	8	9	2					
19	8	19	1					
20	9	20	1					
@<TRIPOS>SUBSTRUCTURE								
1	MOL	1	TEMP	0	****	****	0	ROOT
