@<TRIPOS>MOLECULE								
MOL								
20	20	1	0	0				
SMALL								
No	Charge	or	Current	Charge				
@<TRIPOS>ATOM								
1	C1	-2.1320	1.0730	-0.7490	c3	1	MOL	-0.0574796410713743
2	C2	-1.9670	-0.4160	-1.0590	c3	1	MOL	0.0502276851611604
3	C3	-1.7760	-1.3140	0.1730	c3	1	MOL	0.029434866161889
4	C4	-0.3770	-1.3630	0.8450	c3	1	MOL	-0.1367489029942565
5	N1	0.6020	-0.3840	0.4050	na	1	MOL	0.3986932518358891
6	N2	0.8010	0.7170	1.1030	nc	1	MOL	-0.2502196049522864
7	N3	1.7070	1.4020	0.5360	nd	1	MOL	-0.3193359951280445
8	C5	2.1320	0.7420	-0.5640	cd	1	MOL	0.1155272094562996
9	C6	1.4260	-0.4140	-0.6550	cc	1	MOL	-0.3665531218424377
10	H1	-2.3080	1.6310	-1.6630	hc	1	MOL	0.0130890605865177
11	H2	-1.2600	1.4940	-0.2650	hc	1	MOL	0.0130890605865177
12	H3	-2.9840	1.2350	-0.0960	hc	1	MOL	0.0130890605865177
13	H4	-2.8640	-0.7610	-1.5670	hc	1	MOL	-0.0014480429946745
14	H5	-1.1540	-0.5600	-1.7640	hc	1	MOL	-0.0014480429946745
15	H6	-2.5030	-1.0140	0.9220	hc	1	MOL	0.013903235081947
16	H7	-2.0320	-2.3330	-0.0990	hc	1	MOL	0.013903235081947
17	H8	-0.4640	-1.2260	1.9120	h1	1	MOL	0.0718422229084886
18	H9	0.0710	-2.3350	0.6810	h1	1	MOL	0.0718422229084886
19	H10	2.9010	1.1310	-1.1960	h4	1	MOL	0.1170117401835705
20	H11	1.4440	-1.2240	-1.3520	h4	1	MOL	0.2115805014385151
@<TRIPOS>BOND								
1	1	2	1					
2	1	10	1					
3	1	11	1					
4	1	12	1					
5	2	3	1					
6	2	13	1					
7	2	14	1					
8	3	4	1					
9	3	15	1					
10	3	16	1					
11	4	5	1					
12	4	17	1					
13	4	18	1					
14	5	6	1					
15	5	9	1					
16	6	7	2					
17	7	8	1					
18	8	9	2					
19	8	19	1					
20	9	20	1					
@<TRIPOS>SUBSTRUCTURE								
1	MOL	1	TEMP	0	****	****	0	ROOT
