@<TRIPOS>MOLECULE
MOL
   20    22     1     0     0
SMALL
No Charge or Current Charge


@<TRIPOS>ATOM
      1 C1          -3.6420     0.9170    -0.3210 c3         1 MOL       0.000000
      2 C2          -2.5250     0.8830    -1.3670 c3         1 MOL       0.000000
      3 C3          -1.3050     0.0470    -0.9690 c3         1 MOL       0.000000
      4 C4          -0.5490     0.6110     0.2350 c3         1 MOL       0.000000
      5 N1           0.7210    -0.0590     0.4500 n3         1 MOL       0.000000
      6 N2           1.7880     0.3140    -0.2260 n3         1 MOL       0.000000
      7 N3           2.7550    -0.4460     0.0920 n3         1 MOL       0.000000
      8 C5           2.3250    -1.3510     0.9970 c3         1 MOL       0.000000
      9 C6           1.0090    -1.1110     1.2330 c3         1 MOL       0.000000
     10 H1          -4.5020     1.4640    -0.6940 hc         1 MOL       0.000000
     11 H2          -3.3270     1.4020     0.5980 hc         1 MOL       0.000000
     12 H3          -3.9730    -0.0870    -0.0700 hc         1 MOL       0.000000
     13 H4          -2.9230     0.4790    -2.2930 hc         1 MOL       0.000000
     14 H5          -2.2060     1.8980    -1.5920 hc         1 MOL       0.000000
     15 H6          -1.6060    -0.9770    -0.7590 hc         1 MOL       0.000000
     16 H7          -0.6140     0.0070    -1.8040 hc         1 MOL       0.000000
     17 H8          -0.3250     1.6580     0.0840 h1         1 MOL       0.000000
     18 H9          -1.1210     0.5200     1.1480 h1         1 MOL       0.000000
     19 H10          2.9750    -2.0910     1.4110 h1         1 MOL       0.000000
     20 H11          0.2870    -1.5740     1.8700 h1         1 MOL       0.000000
@<TRIPOS>BOND
     1     1     2 1   
     2     1    10 1   
     3     1    11 1   
     4     1    12 1   
     5     2     3 1   
     6     2    13 1   
     7     2    14 1   
     8     3     4 1   
     9     3    15 1   
    10     3    16 1   
    11     4     5 1   
    12     4    17 1   
    13     4    18 1   
    14     5     6 1   
    15     5     9 1   
    16     6     7 1   
    17     6     7 1   
    18     7     8 1   
    19     8     9 1   
    20     8     9 1   
    21     8    19 1   
    22     9    20 1   
@<TRIPOS>SUBSTRUCTURE
     1 MOL         1 TEMP              0 ****  ****    0 ROOT
