@<TRIPOS>MOLECULE
MOL
   20    22     1     0     0
SMALL
No Charge or Current Charge


@<TRIPOS>ATOM
      1 C1          -2.1710     1.1810    -0.6950 c3         1 MOL       0.000000
      2 C2          -1.9610    -0.2860    -1.0740 c3         1 MOL       0.000000
      3 C3          -1.8270    -1.2410     0.1210 c3         1 MOL       0.000000
      4 C4          -0.4780    -1.2780     0.8930 c3         1 MOL       0.000000
      5 N1           0.5770    -0.3960     0.4210 n3         1 MOL       0.000000
      6 N2           0.8250     0.7390     1.0440 n3         1 MOL       0.000000
      7 N3           1.8000     1.3140     0.4710 n3         1 MOL       0.000000
      8 C5           2.2220     0.5450    -0.5570 c3         1 MOL       0.000000
      9 C6           1.4410    -0.5650    -0.5940 c3         1 MOL       0.000000
     10 H1          -2.2890     1.7900    -1.5860 hc         1 MOL       0.000000
     11 H2          -1.3410     1.5810    -0.1270 hc         1 MOL       0.000000
     12 H3          -3.0700     1.2960    -0.0970 hc         1 MOL       0.000000
     13 H4          -2.8180    -0.6190    -1.6530 hc         1 MOL       0.000000
     14 H5          -1.1020    -0.3800    -1.7310 hc         1 MOL       0.000000
     15 H6          -2.6140    -1.0150     0.8320 hc         1 MOL       0.000000
     16 H7          -2.0240    -2.2490    -0.2310 hc         1 MOL       0.000000
     17 H8          -0.6270    -1.0060     1.9260 h1         1 MOL       0.000000
     18 H9          -0.0750    -2.2820     0.8790 h1         1 MOL       0.000000
     19 H10          3.0420     0.8320    -1.1790 h1         1 MOL       0.000000
     20 H11          1.4300    -1.4250    -1.2270 h1         1 MOL       0.000000
@<TRIPOS>BOND
     1     1     2 1   
     2     1    10 1   
     3     1    11 1   
     4     1    12 1   
     5     2     3 1   
     6     2    13 1   
     7     2    14 1   
     8     3     4 1   
     9     3    15 1   
    10     3    16 1   
    11     4     5 1   
    12     4    17 1   
    13     4    18 1   
    14     5     6 1   
    15     5     9 1   
    16     6     7 1   
    17     6     7 1   
    18     7     8 1   
    19     8     9 1   
    20     8     9 1   
    21     8    19 1   
    22     9    20 1   
@<TRIPOS>SUBSTRUCTURE
     1 MOL         1 TEMP              0 ****  ****    0 ROOT
