@<TRIPOS>MOLECULE								
MOL								
20	20	1	0	0				
SMALL								
No	Charge	or	Current	Charge				
@<TRIPOS>ATOM								
1	C1	-2.0710	0.7660	-1.6740	c3	1	MOL	-0.0574796410713743
2	C2	-2.3690	-0.6910	-1.3170	c3	1	MOL	0.0502276851611604
3	C3	-1.5740	-1.2330	-0.1240	c3	1	MOL	0.029434866161889
4	C4	-0.0580	-1.3560	-0.3540	c3	1	MOL	-0.1367489029942565
5	N1	0.7140	-0.2580	0.2120	na	1	MOL	0.3986932518358891
6	N2	0.6980	-0.0380	1.5100	nc	1	MOL	-0.2502196049522864
7	N3	1.4750	0.9330	1.7690	nd	1	MOL	-0.3193359951280445
8	C5	2.0300	1.3700	0.6180	cd	1	MOL	0.1155272094562996
9	C6	1.5460	0.6030	-0.3940	cc	1	MOL	-0.3665531218424377
10	H1	-2.7110	1.1010	-2.4840	hc	1	MOL	0.0130890605865177
11	H2	-1.0430	0.9050	-1.9930	hc	1	MOL	0.0130890605865177
12	H3	-2.2400	1.4180	-0.8230	hc	1	MOL	0.0130890605865177
13	H4	-3.4270	-0.7870	-1.0880	hc	1	MOL	-0.0014480429946745
14	H5	-2.1900	-1.3240	-2.1840	hc	1	MOL	-0.0014480429946745
15	H6	-1.7480	-0.6290	0.7590	hc	1	MOL	0.013903235081947
16	H7	-1.9500	-2.2250	0.1080	hc	1	MOL	0.013903235081947
17	H8	0.3140	-2.2650	0.0980	h1	1	MOL	0.0718422229084886
18	H9	0.1800	-1.3960	-1.4090	h1	1	MOL	0.0718422229084886
19	H10	2.7210	2.1840	0.5950	h4	1	MOL	0.1170117401835705
20	H11	1.7180	0.5980	-1.4480	h4	1	MOL	0.2115805014385151
@<TRIPOS>BOND								
1	1	2	1					
2	1	10	1					
3	1	11	1					
4	1	12	1					
5	2	3	1					
6	2	13	1					
7	2	14	1					
8	3	4	1					
9	3	15	1					
10	3	16	1					
11	4	5	1					
12	4	17	1					
13	4	18	1					
14	5	6	1					
15	5	9	1					
16	6	7	2					
17	7	8	1					
18	8	9	2					
19	8	19	1					
20	9	20	1					
@<TRIPOS>SUBSTRUCTURE								
1	MOL	1	TEMP	0	****	****	0	ROOT
