@<TRIPOS>MOLECULE
MOL
   20    22     1     0     0
SMALL
No Charge or Current Charge


@<TRIPOS>ATOM
      1 C1          -2.7060     1.2500    -0.5200 c3         1 MOL       0.000000
      2 C2          -1.9660     0.0880    -1.1850 c3         1 MOL       0.000000
      3 C3          -1.6860    -1.0990    -0.2570 c3         1 MOL       0.000000
      4 C4          -0.7610    -0.8020     0.9250 c3         1 MOL       0.000000
      5 N1           0.5580    -0.3460     0.5210 n3         1 MOL       0.000000
      6 N2           0.8770     0.9310     0.6020 n3         1 MOL       0.000000
      7 N3           2.0580     1.0850     0.1610 n3         1 MOL       0.000000
      8 C5           2.5440    -0.1170    -0.2170 c3         1 MOL       0.000000
      9 C6           1.5820    -1.0480     0.0100 c3         1 MOL       0.000000
     10 H1          -2.9650     2.0050    -1.2550 hc         1 MOL       0.000000
     11 H2          -2.0990     1.7330     0.2370 hc         1 MOL       0.000000
     12 H3          -3.6290     0.9130    -0.0530 hc         1 MOL       0.000000
     13 H4          -2.5570    -0.2790    -2.0200 hc         1 MOL       0.000000
     14 H5          -1.0330     0.4490    -1.6070 hc         1 MOL       0.000000
     15 H6          -2.6230    -1.4700     0.1540 hc         1 MOL       0.000000
     16 H7          -1.2610    -1.9140    -0.8370 hc         1 MOL       0.000000
     17 H8          -1.1620    -0.0270     1.5600 h1         1 MOL       0.000000
     18 H9          -0.6350    -1.6920     1.5300 h1         1 MOL       0.000000
     19 H10          3.5300    -0.2290    -0.6140 h1         1 MOL       0.000000
     20 H11          1.5430    -2.1060    -0.1380 h1         1 MOL       0.000000
@<TRIPOS>BOND
     1     1     2 1   
     2     1    10 1   
     3     1    11 1   
     4     1    12 1   
     5     2     3 1   
     6     2    13 1   
     7     2    14 1   
     8     3     4 1   
     9     3    15 1   
    10     3    16 1   
    11     4     5 1   
    12     4    17 1   
    13     4    18 1   
    14     5     6 1   
    15     5     9 1   
    16     6     7 1   
    17     6     7 1   
    18     7     8 1   
    19     8     9 1   
    20     8     9 1   
    21     8    19 1   
    22     9    20 1   
@<TRIPOS>SUBSTRUCTURE
     1 MOL         1 TEMP              0 ****  ****    0 ROOT
