@<TRIPOS>MOLECULE
MOL
   20    22     1     0     0
SMALL
No Charge or Current Charge


@<TRIPOS>ATOM
      1 C1          -2.8630     1.2870    -0.5460 c3         1 MOL       0.000000
      2 C2          -2.0090     0.2140    -1.2220 c3         1 MOL       0.000000
      3 C3          -1.6790    -0.9870    -0.3280 c3         1 MOL       0.000000
      4 C4          -0.8040    -0.6750     0.8880 c3         1 MOL       0.000000
      5 N1           0.5650    -0.3390     0.5340 n3         1 MOL       0.000000
      6 N2           0.9560     0.9190     0.4940 n3         1 MOL       0.000000
      7 N3           2.1730     0.9560     0.1310 n3         1 MOL       0.000000
      8 C5           2.6070    -0.3060    -0.0770 c3         1 MOL       0.000000
      9 C6           1.5750    -1.1510     0.1800 c3         1 MOL       0.000000
     10 H1          -3.1390     2.0560    -1.2600 hc         1 MOL       0.000000
     11 H2          -2.3330     1.7770     0.2640 hc         1 MOL       0.000000
     12 H3          -3.7810     0.8660    -0.1450 hc         1 MOL       0.000000
     13 H4          -2.5360    -0.1590    -2.0960 hc         1 MOL       0.000000
     14 H5          -1.0890     0.6610    -1.5870 hc         1 MOL       0.000000
     15 H6          -2.6050    -1.4220     0.0420 hc         1 MOL       0.000000
     16 H7          -1.1920    -1.7590    -0.9190 hc         1 MOL       0.000000
     17 H8          -1.1850     0.1600     1.4550 h1         1 MOL       0.000000
     18 H9          -0.7690    -1.5330     1.5470 h1         1 MOL       0.000000
     19 H10          3.6080    -0.5160    -0.3840 h1         1 MOL       0.000000
     20 H11          1.4800    -2.2140     0.1470 h1         1 MOL       0.000000
@<TRIPOS>BOND
     1     1     2 1   
     2     1    10 1   
     3     1    11 1   
     4     1    12 1   
     5     2     3 1   
     6     2    13 1   
     7     2    14 1   
     8     3     4 1   
     9     3    15 1   
    10     3    16 1   
    11     4     5 1   
    12     4    17 1   
    13     4    18 1   
    14     5     6 1   
    15     5     9 1   
    16     6     7 1   
    17     6     7 1   
    18     7     8 1   
    19     8     9 1   
    20     8     9 1   
    21     8    19 1   
    22     9    20 1   
@<TRIPOS>SUBSTRUCTURE
     1 MOL         1 TEMP              0 ****  ****    0 ROOT
