@<TRIPOS>MOLECULE
MOL
   20    22     1     0     0
SMALL
No Charge or Current Charge


@<TRIPOS>ATOM
      1 C1          -2.5730     1.2520    -0.5050 c3         1 MOL       0.000000
      2 C2          -1.9320     0.0190    -1.1450 c3         1 MOL       0.000000
      3 C3          -1.7150    -1.1510    -0.1800 c3         1 MOL       0.000000
      4 C4          -0.7180    -0.8980     0.9560 c3         1 MOL       0.000000
      5 N1           0.5540    -0.3580     0.5060 n3         1 MOL       0.000000
      6 N2           0.8470     0.9120     0.6950 n3         1 MOL       0.000000
      7 N3           1.9900     1.1460     0.1950 n3         1 MOL       0.000000
      8 C5           2.4750     0.0060    -0.3440 c3         1 MOL       0.000000
      9 C6           1.5540    -0.9730    -0.1480 c3         1 MOL       0.000000
     10 H1          -2.7780     2.0070    -1.2570 hc         1 MOL       0.000000
     11 H2          -1.9240     1.7020     0.2370 hc         1 MOL       0.000000
     12 H3          -3.5150     0.9990    -0.0260 hc         1 MOL       0.000000
     13 H4          -2.5690    -0.3350    -1.9510 hc         1 MOL       0.000000
     14 H5          -0.9880     0.2950    -1.6020 hc         1 MOL       0.000000
     15 H6          -2.6580    -1.4370     0.2780 hc         1 MOL       0.000000
     16 H7          -1.3790    -2.0150    -0.7490 hc         1 MOL       0.000000
     17 H8          -1.1030    -0.1770     1.6620 h1         1 MOL       0.000000
     18 H9          -0.5250    -1.8170     1.4950 h1         1 MOL       0.000000
     19 H10          3.4310    -0.0340    -0.8190 h1         1 MOL       0.000000
     20 H11          1.5290    -2.0100    -0.4030 h1         1 MOL       0.000000
@<TRIPOS>BOND
     1     1     2 1   
     2     1    10 1   
     3     1    11 1   
     4     1    12 1   
     5     2     3 1   
     6     2    13 1   
     7     2    14 1   
     8     3     4 1   
     9     3    15 1   
    10     3    16 1   
    11     4     5 1   
    12     4    17 1   
    13     4    18 1   
    14     5     6 1   
    15     5     9 1   
    16     6     7 1   
    17     6     7 1   
    18     7     8 1   
    19     8     9 1   
    20     8     9 1   
    21     8    19 1   
    22     9    20 1   
@<TRIPOS>SUBSTRUCTURE
     1 MOL         1 TEMP              0 ****  ****    0 ROOT
