@<TRIPOS>MOLECULE
MOL
   20    22     1     0     0
SMALL
No Charge or Current Charge


@<TRIPOS>ATOM
      1 C1          -3.6530     0.9010    -0.3100 c3         1 MOL       0.000000
      2 C2          -2.4820     0.5370    -1.2250 c3         1 MOL       0.000000
      3 C3          -1.5050    -0.4720    -0.6140 c3         1 MOL       0.000000
      4 C4          -0.7270     0.0810     0.5990 c3         1 MOL       0.000000
      5 N1           0.7070    -0.1350     0.5020 n3         1 MOL       0.000000
      6 N2           1.4520     0.6970    -0.1960 n3         1 MOL       0.000000
      7 N3           2.6500     0.2750    -0.1860 n3         1 MOL       0.000000
      8 C5           2.7070    -0.8690     0.5290 c3         1 MOL       0.000000
      9 C6           1.4530    -1.1440     0.9760 c3         1 MOL       0.000000
     10 H1          -4.3220     1.6030    -0.7970 hc         1 MOL       0.000000
     11 H2          -3.3190     1.3610     0.6150 hc         1 MOL       0.000000
     12 H3          -4.2320     0.0190    -0.0500 hc         1 MOL       0.000000
     13 H4          -2.8730     0.1200    -2.1490 hc         1 MOL       0.000000
     14 H5          -1.9350     1.4350    -1.5000 hc         1 MOL       0.000000
     15 H6          -2.0350    -1.3780    -0.3330 hc         1 MOL       0.000000
     16 H7          -0.7850    -0.7550    -1.3730 hc         1 MOL       0.000000
     17 H8          -0.8570     1.1500     0.6830 h1         1 MOL       0.000000
     18 H9          -1.0580    -0.3620     1.5280 h1         1 MOL       0.000000
     19 H10          3.6220    -1.4000     0.6760 h1         1 MOL       0.000000
     20 H11          1.0490    -1.9340     1.5700 h1         1 MOL       0.000000
@<TRIPOS>BOND
     1     1     2 1   
     2     1    10 1   
     3     1    11 1   
     4     1    12 1   
     5     2     3 1   
     6     2    13 1   
     7     2    14 1   
     8     3     4 1   
     9     3    15 1   
    10     3    16 1   
    11     4     5 1   
    12     4    17 1   
    13     4    18 1   
    14     5     6 1   
    15     5     9 1   
    16     6     7 1   
    17     6     7 1   
    18     7     8 1   
    19     8     9 1   
    20     8     9 1   
    21     8    19 1   
    22     9    20 1   
@<TRIPOS>SUBSTRUCTURE
     1 MOL         1 TEMP              0 ****  ****    0 ROOT
