@<TRIPOS>MOLECULE
MOL
   20    22     1     0     0
SMALL
No Charge or Current Charge


@<TRIPOS>ATOM
      1 C1          -2.5020     0.9040    -2.2410 c3         1 MOL       0.000000
      2 C2          -2.6350    -0.3800    -1.4200 c3         1 MOL       0.000000
      3 C3          -1.6510    -0.4800    -0.2480 c3         1 MOL       0.000000
      4 C4          -0.2070    -0.7690    -0.6870 c3         1 MOL       0.000000
      5 N1           0.7830    -0.2130     0.2180 n3         1 MOL       0.000000
      6 N2           1.1430    -0.8750     1.2980 n3         1 MOL       0.000000
      7 N3           1.9680    -0.1660     1.9540 n3         1 MOL       0.000000
      8 C5           2.1600     1.0000     1.3000 c3         1 MOL       0.000000
      9 C6           1.3970     0.9810     0.1770 c3         1 MOL       0.000000
     10 H1          -3.2370     0.9280    -3.0390 hc         1 MOL       0.000000
     11 H2          -1.5240     1.0000    -2.7030 hc         1 MOL       0.000000
     12 H3          -2.6600     1.7800    -1.6190 hc         1 MOL       0.000000
     13 H4          -3.6450    -0.4360    -1.0240 hc         1 MOL       0.000000
     14 H5          -2.5210    -1.2450    -2.0710 hc         1 MOL       0.000000
     15 H6          -1.6670     0.4540     0.3060 hc         1 MOL       0.000000
     16 H7          -1.9670    -1.2520     0.4450 hc         1 MOL       0.000000
     17 H8          -0.0230    -1.8320    -0.7460 h1         1 MOL       0.000000
     18 H9          -0.0050    -0.3480    -1.6620 h1         1 MOL       0.000000
     19 H10          2.8230     1.7520     1.6690 h1         1 MOL       0.000000
     20 H11          1.2490     1.6810    -0.6160 h1         1 MOL       0.000000
@<TRIPOS>BOND
     1     1     2 1   
     2     1    10 1   
     3     1    11 1   
     4     1    12 1   
     5     2     3 1   
     6     2    13 1   
     7     2    14 1   
     8     3     4 1   
     9     3    15 1   
    10     3    16 1   
    11     4     5 1   
    12     4    17 1   
    13     4    18 1   
    14     5     6 1   
    15     5     9 1   
    16     6     7 1   
    17     6     7 1   
    18     7     8 1   
    19     8     9 1   
    20     8     9 1   
    21     8    19 1   
    22     9    20 1   
@<TRIPOS>SUBSTRUCTURE
     1 MOL         1 TEMP              0 ****  ****    0 ROOT
