@<TRIPOS>MOLECULE								
MOL								
20	20	1	0	0				
SMALL								
No	Charge	or	Current	Charge				
@<TRIPOS>ATOM								
1	C1	-2.0520	0.9070	-0.9970	c3	1	MOL	-0.0574796410713743
2	C2	-1.9910	-0.6160	-1.1390	c3	1	MOL	0.0502276851611604
3	C3	-1.6390	-1.3740	0.1530	c3	1	MOL	0.029434866161889
4	C4	-0.1470	-1.5900	0.4220	c3	1	MOL	-0.1367489029942565
5	N1	0.6710	-0.3930	0.3210	na	1	MOL	0.3986932518358891
6	N2	0.6290	0.5190	1.2700	nc	1	MOL	-0.2502196049522864
7	N3	1.4100	1.4700	0.9530	nd	1	MOL	-0.3193359951280445
8	C5	1.9890	1.1860	-0.2330	cd	1	MOL	0.1155272094562996
9	C6	1.5180	-0.0180	-0.6500	cc	1	MOL	-0.3665531218424377
10	H1	-2.3380	1.3620	-1.9400	hc	1	MOL	0.0130890605865177
11	H2	-1.1060	1.3360	-0.6950	hc	1	MOL	0.0130890605865177
12	H3	-2.7930	1.1910	-0.2560	hc	1	MOL	0.0130890605865177
13	H4	-2.9630	-0.9630	-1.4780	hc	1	MOL	-0.0014480429946745
14	H5	-1.2900	-0.8860	-1.9280	hc	1	MOL	-0.0014480429946745
15	H6	-2.0790	-0.8610	1.0030	hc	1	MOL	0.013903235081947
16	H7	-2.0830	-2.3660	0.1280	hc	1	MOL	0.013903235081947
17	H8	-0.0020	-2.0000	1.4120	h1	1	MOL	0.0718422229084886
18	H9	0.2590	-2.2960	-0.2910	h1	1	MOL	0.0718422229084886
19	H10	2.6910	1.8470	-0.6930	h4	1	MOL	0.1170117401835705
20	H11	1.7080	-0.6150	-1.5150	h4	1	MOL	0.2115805014385151
@<TRIPOS>BOND								
1	1	2	1					
2	1	10	1					
3	1	11	1					
4	1	12	1					
5	2	3	1					
6	2	13	1					
7	2	14	1					
8	3	4	1					
9	3	15	1					
10	3	16	1					
11	4	5	1					
12	4	17	1					
13	4	18	1					
14	5	6	1					
15	5	9	1					
16	6	7	2					
17	7	8	1					
18	8	9	2					
19	8	19	1					
20	9	20	1					
@<TRIPOS>SUBSTRUCTURE								
1	MOL	1	TEMP	0	****	****	0	ROOT
