@<TRIPOS>MOLECULE								
MOL								
20	20	1	0	0				
SMALL								
No	Charge	or	Current	Charge				
@<TRIPOS>ATOM								
1	C1	-3.0880	1.2370	-0.5130	c3	1	MOL	-0.0574796410713743
2	C2	-2.0870	0.3040	-1.1970	c3	1	MOL	0.0502276851611604
3	C3	-1.6580	-0.8920	-0.3390	c3	1	MOL	0.029434866161889
4	C4	-0.7940	-0.5390	0.8760	c3	1	MOL	-0.1367489029942565
5	N1	0.6010	-0.3110	0.5350	na	1	MOL	0.3986932518358891
6	N2	1.0530	0.9130	0.3460	nc	1	MOL	-0.2502196049522864
7	N3	2.2790	0.8480	0.0200	nd	1	MOL	-0.3193359951280445
8	C5	2.6590	-0.4480	-0.0030	cd	1	MOL	0.1155272094562996
9	C6	1.5800	-1.2050	0.3270	cc	1	MOL	-0.3665531218424377
10	H1	-3.4010	2.0220	-1.1930	hc	1	MOL	0.0130890605865177
11	H2	-2.6660	1.7210	0.3610	hc	1	MOL	0.0130890605865177
12	H3	-3.9780	0.6960	-0.2000	hc	1	MOL	0.0130890605865177
13	H4	-2.5330	-0.0800	-2.1100	hc	1	MOL	-0.0014480429946745
14	H5	-1.2100	0.8700	-1.4980	hc	1	MOL	-0.0014480429946745
15	H6	-2.5480	-1.4010	0.0250	hc	1	MOL	0.013903235081947
16	H7	-1.1200	-1.6120	-0.9490	hc	1	MOL	0.013903235081947
17	H8	-1.1380	0.3530	1.3750	h1	1	MOL	0.0718422229084886
18	H9	-0.8150	-1.3480	1.5960	h1	1	MOL	0.0718422229084886
19	H10	3.6570	-0.7400	-0.2440	h4	1	MOL	0.1170117401835705
20	H11	1.4360	-2.2590	0.4310	h4	1	MOL	0.2115805014385151
@<TRIPOS>BOND								
1	1	2	1					
2	1	10	1					
3	1	11	1					
4	1	12	1					
5	2	3	1					
6	2	13	1					
7	2	14	1					
8	3	4	1					
9	3	15	1					
10	3	16	1					
11	4	5	1					
12	4	17	1					
13	4	18	1					
14	5	6	1					
15	5	9	1					
16	6	7	2					
17	7	8	1					
18	8	9	2					
19	8	19	1					
20	9	20	1					
@<TRIPOS>SUBSTRUCTURE								
1	MOL	1	TEMP	0	****	****	0	ROOT
