@<TRIPOS>MOLECULE
MOL
   20    22     1     0     0
SMALL
No Charge or Current Charge


@<TRIPOS>ATOM
      1 C1          -2.5670     0.9280    -2.3310 c3         1 MOL       0.000000
      2 C2          -2.6490    -0.3110    -1.4350 c3         1 MOL       0.000000
      3 C3          -1.6300    -0.3320    -0.2890 c3         1 MOL       0.000000
      4 C4          -0.1960    -0.6080    -0.7530 c3         1 MOL       0.000000
      5 N1           0.7960    -0.1870     0.2210 n3         1 MOL       0.000000
      6 N2           1.1020    -0.9680     1.2360 n3         1 MOL       0.000000
      7 N3           1.9450    -0.3660     1.9710 n3         1 MOL       0.000000
      8 C5           2.2020     0.8490     1.4400 c3         1 MOL       0.000000
      9 C6           1.4620     0.9750     0.3080 c3         1 MOL       0.000000
     10 H1          -3.3410     0.9030    -3.0910 hc         1 MOL       0.000000
     11 H2          -1.6150     1.0040    -2.8460 hc         1 MOL       0.000000
     12 H3          -2.7030     1.8360    -1.7510 hc         1 MOL       0.000000
     13 H4          -3.6450    -0.3590    -1.0040 hc         1 MOL       0.000000
     14 H5          -2.5420    -1.2090    -2.0410 hc         1 MOL       0.000000
     15 H6          -1.6540     0.6270     0.2220 hc         1 MOL       0.000000
     16 H7          -1.9050    -1.0810     0.4460 hc         1 MOL       0.000000
     17 H8          -0.0420    -1.6620    -0.9360 h1         1 MOL       0.000000
     18 H9           0.0280    -0.0780    -1.6690 h1         1 MOL       0.000000
     19 H10          2.8890     1.5310     1.8920 h1         1 MOL       0.000000
     20 H11          1.3630     1.7560    -0.4150 h1         1 MOL       0.000000
@<TRIPOS>BOND
     1     1     2 1   
     2     1    10 1   
     3     1    11 1   
     4     1    12 1   
     5     2     3 1   
     6     2    13 1   
     7     2    14 1   
     8     3     4 1   
     9     3    15 1   
    10     3    16 1   
    11     4     5 1   
    12     4    17 1   
    13     4    18 1   
    14     5     6 1   
    15     5     9 1   
    16     6     7 1   
    17     6     7 1   
    18     7     8 1   
    19     8     9 1   
    20     8     9 1   
    21     8    19 1   
    22     9    20 1   
@<TRIPOS>SUBSTRUCTURE
     1 MOL         1 TEMP              0 ****  ****    0 ROOT
