@<TRIPOS>MOLECULE
MOL
   20    22     1     0     0
SMALL
No Charge or Current Charge


@<TRIPOS>ATOM
      1 C1          -2.3260     1.2130    -0.5630 c3         1 MOL       0.000000
      2 C2          -1.9320    -0.1750    -1.0720 c3         1 MOL       0.000000
      3 C3          -1.7940    -1.2320     0.0310 c3         1 MOL       0.000000
      4 C4          -0.5580    -1.1400     0.9600 c3         1 MOL       0.000000
      5 N1           0.5690    -0.3800     0.4470 n3         1 MOL       0.000000
      6 N2           0.8250     0.8300     0.9020 n3         1 MOL       0.000000
      7 N3           1.8610     1.2740     0.3190 n3         1 MOL       0.000000
      8 C5           2.3160     0.3380    -0.5430 c3         1 MOL       0.000000
      9 C6           1.4890    -0.7360    -0.4650 c3         1 MOL       0.000000
     10 H1          -2.4270     1.9100    -1.3890 hc         1 MOL       0.000000
     11 H2          -1.5890     1.6180     0.1210 hc         1 MOL       0.000000
     12 H3          -3.2810     1.1760    -0.0460 hc         1 MOL       0.000000
     13 H4          -2.6960    -0.5260    -1.7600 hc         1 MOL       0.000000
     14 H5          -1.0140    -0.1120    -1.6450 hc         1 MOL       0.000000
     15 H6          -2.6790    -1.2190     0.6600 hc         1 MOL       0.000000
     16 H7          -1.7820    -2.2100    -0.4450 hc         1 MOL       0.000000
     17 H8          -0.8170    -0.6520     1.8870 h1         1 MOL       0.000000
     18 H9          -0.2040    -2.1330     1.2050 h1         1 MOL       0.000000
     19 H10          3.1870     0.4960    -1.1410 h1         1 MOL       0.000000
     20 H11          1.4790    -1.6840    -0.9580 h1         1 MOL       0.000000
@<TRIPOS>BOND
     1     1     2 1   
     2     1    10 1   
     3     1    11 1   
     4     1    12 1   
     5     2     3 1   
     6     2    13 1   
     7     2    14 1   
     8     3     4 1   
     9     3    15 1   
    10     3    16 1   
    11     4     5 1   
    12     4    17 1   
    13     4    18 1   
    14     5     6 1   
    15     5     9 1   
    16     6     7 1   
    17     6     7 1   
    18     7     8 1   
    19     8     9 1   
    20     8     9 1   
    21     8    19 1   
    22     9    20 1   
@<TRIPOS>SUBSTRUCTURE
     1 MOL         1 TEMP              0 ****  ****    0 ROOT
