@<TRIPOS>MOLECULE
MOL
   20    22     1     0     0
SMALL
No Charge or Current Charge


@<TRIPOS>ATOM
      1 C1          -3.6260     1.0250    -0.4070 c3         1 MOL       0.000000
      2 C2          -2.4760     0.8660    -1.4040 c3         1 MOL       0.000000
      3 C3          -1.3440    -0.0470    -0.9230 c3         1 MOL       0.000000
      4 C4          -0.6150     0.4920     0.3120 c3         1 MOL       0.000000
      5 N1           0.7000    -0.1020     0.4820 n3         1 MOL       0.000000
      6 N2           1.7360     0.3900    -0.1640 n3         1 MOL       0.000000
      7 N3           2.7540    -0.3220     0.1000 n3         1 MOL       0.000000
      8 C5           2.3900    -1.3160     0.9390 c3         1 MOL       0.000000
      9 C6           1.0610    -1.1840     1.1900 c3         1 MOL       0.000000
     10 H1          -4.4180     1.6370    -0.8250 hc         1 MOL       0.000000
     11 H2          -3.3030     1.5010     0.5150 hc         1 MOL       0.000000
     12 H3          -4.0560     0.0610    -0.1490 hc         1 MOL       0.000000
     13 H4          -2.8670     0.4620    -2.3330 hc         1 MOL       0.000000
     14 H5          -2.0660     1.8440    -1.6460 hc         1 MOL       0.000000
     15 H6          -1.7280    -1.0430    -0.7150 hc         1 MOL       0.000000
     16 H7          -0.6150    -0.1490    -1.7190 hc         1 MOL       0.000000
     17 H8          -0.4570     1.5580     0.2220 h1         1 MOL       0.000000
     18 H9          -1.1740     0.3140     1.2210 h1         1 MOL       0.000000
     19 H10          3.0900    -2.0370     1.3000 h1         1 MOL       0.000000
     20 H11          0.3750    -1.7390     1.7910 h1         1 MOL       0.000000
@<TRIPOS>BOND
     1     1     2 1   
     2     1    10 1   
     3     1    11 1   
     4     1    12 1   
     5     2     3 1   
     6     2    13 1   
     7     2    14 1   
     8     3     4 1   
     9     3    15 1   
    10     3    16 1   
    11     4     5 1   
    12     4    17 1   
    13     4    18 1   
    14     5     6 1   
    15     5     9 1   
    16     6     7 1   
    17     6     7 1   
    18     7     8 1   
    19     8     9 1   
    20     8     9 1   
    21     8    19 1   
    22     9    20 1   
@<TRIPOS>SUBSTRUCTURE
     1 MOL         1 TEMP              0 ****  ****    0 ROOT
