@<TRIPOS>MOLECULE
MOL
   20    22     1     0     0
SMALL
No Charge or Current Charge


@<TRIPOS>ATOM
      1 C1          -2.1440     0.7900    -1.8060 c3         1 MOL       0.000000
      2 C2          -2.4380    -0.6390    -1.3480 c3         1 MOL       0.000000
      3 C3          -1.6030    -1.1050    -0.1500 c3         1 MOL       0.000000
      4 C4          -0.0960    -1.2590    -0.4390 c3         1 MOL       0.000000
      5 N1           0.7310    -0.2540     0.2120 n3         1 MOL       0.000000
      6 N2           0.8450    -0.2450     1.5230 n3         1 MOL       0.000000
      7 N3           1.6150     0.7080     1.8580 n3         1 MOL       0.000000
      8 C5           2.0290     1.3500     0.7460 c3         1 MOL       0.000000
      9 C6           1.4620     0.7360    -0.3250 c3         1 MOL       0.000000
     10 H1          -2.7960     1.0750    -2.6250 hc         1 MOL       0.000000
     11 H2          -1.1210     0.9030    -2.1550 hc         1 MOL       0.000000
     12 H3          -2.2940     1.4980    -0.9970 hc         1 MOL       0.000000
     13 H4          -3.4880    -0.7110    -1.0780 hc         1 MOL       0.000000
     14 H5          -2.2930    -1.3270    -2.1790 hc         1 MOL       0.000000
     15 H6          -1.7330    -0.4270     0.6850 hc         1 MOL       0.000000
     16 H7          -1.9830    -2.0670     0.1780 hc         1 MOL       0.000000
     17 H8           0.2580    -2.2210    -0.0950 h1         1 MOL       0.000000
     18 H9           0.1130    -1.1980    -1.4990 h1         1 MOL       0.000000
     19 H10          2.6910     2.1870     0.7880 h1         1 MOL       0.000000
     20 H11          1.5180     0.9100    -1.3770 h1         1 MOL       0.000000
@<TRIPOS>BOND
     1     1     2 1   
     2     1    10 1   
     3     1    11 1   
     4     1    12 1   
     5     2     3 1   
     6     2    13 1   
     7     2    14 1   
     8     3     4 1   
     9     3    15 1   
    10     3    16 1   
    11     4     5 1   
    12     4    17 1   
    13     4    18 1   
    14     5     6 1   
    15     5     9 1   
    16     6     7 1   
    17     6     7 1   
    18     7     8 1   
    19     8     9 1   
    20     8     9 1   
    21     8    19 1   
    22     9    20 1   
@<TRIPOS>SUBSTRUCTURE
     1 MOL         1 TEMP              0 ****  ****    0 ROOT
