@<TRIPOS>MOLECULE
MOL
   20    22     1     0     0
SMALL
No Charge or Current Charge


@<TRIPOS>ATOM
      1 C1          -3.4260     1.0600    -0.3710 c3         1 MOL       0.000000
      2 C2          -2.2780     0.4030    -1.1400 c3         1 MOL       0.000000
      3 C3          -1.5990    -0.7420    -0.3800 c3         1 MOL       0.000000
      4 C4          -0.7510    -0.2890     0.8230 c3         1 MOL       0.000000
      5 N1           0.6710    -0.2310     0.5260 n3         1 MOL       0.000000
      6 N2           1.1990     0.8600     0.0110 n3         1 MOL       0.000000
      7 N3           2.4320     0.6470    -0.2140 n3         1 MOL       0.000000
      8 C5           2.7340    -0.6160     0.1570 c3         1 MOL       0.000000
      9 C6           1.6010    -1.1930     0.6340 c3         1 MOL       0.000000
     10 H1          -3.8790     1.8500    -0.9600 hc         1 MOL       0.000000
     11 H2          -3.0930     1.5060     0.5620 hc         1 MOL       0.000000
     12 H3          -4.2010     0.3370    -0.1340 hc         1 MOL       0.000000
     13 H4          -2.6660     0.0110    -2.0760 hc         1 MOL       0.000000
     14 H5          -1.5350     1.1500    -1.4050 hc         1 MOL       0.000000
     15 H6          -2.3650    -1.4280    -0.0260 hc         1 MOL       0.000000
     16 H7          -0.9660    -1.3100    -1.0540 hc         1 MOL       0.000000
     17 H8          -1.0330     0.6940     1.1680 h1         1 MOL       0.000000
     18 H9          -0.8650    -0.9730     1.6540 h1         1 MOL       0.000000
     19 H10          3.7220    -1.0110     0.0640 h1         1 MOL       0.000000
     20 H11          1.3890    -2.1630     1.0300 h1         1 MOL       0.000000
@<TRIPOS>BOND
     1     1     2 1   
     2     1    10 1   
     3     1    11 1   
     4     1    12 1   
     5     2     3 1   
     6     2    13 1   
     7     2    14 1   
     8     3     4 1   
     9     3    15 1   
    10     3    16 1   
    11     4     5 1   
    12     4    17 1   
    13     4    18 1   
    14     5     6 1   
    15     5     9 1   
    16     6     7 1   
    17     6     7 1   
    18     7     8 1   
    19     8     9 1   
    20     8     9 1   
    21     8    19 1   
    22     9    20 1   
@<TRIPOS>SUBSTRUCTURE
     1 MOL         1 TEMP              0 ****  ****    0 ROOT
