@<TRIPOS>MOLECULE								
MOL								
20	20	1	0	0				
SMALL								
No	Charge	or	Current	Charge				
@<TRIPOS>ATOM								
1	C1	-2.3230	0.8470	-2.0490	c3	1	MOL	-0.0574796410713743
2	C2	-2.5750	-0.4990	-1.3690	c3	1	MOL	0.0502276851611604
3	C3	-1.6620	-0.7750	-0.1690	c3	1	MOL	0.029434866161889
4	C4	-0.1900	-1.0420	-0.5500	c3	1	MOL	-0.1367489029942565
5	N1	0.7590	-0.2500	0.2120	na	1	MOL	0.3986932518358891
6	N2	1.1340	-0.6430	1.4110	nc	1	MOL	-0.2502196049522864
7	N3	1.9150	0.2320	1.9000	nd	1	MOL	-0.3193359951280445
8	C5	2.0600	1.2370	1.0100	cd	1	MOL	0.1155272094562996
9	C6	1.3150	0.9350	-0.0860	cc	1	MOL	-0.3665531218424377
10	H1	-3.0160	1.0000	-2.8700	hc	1	MOL	0.0130890605865177
11	H2	-1.3200	0.9180	-2.4590	hc	1	MOL	0.0130890605865177
12	H3	-2.4520	1.6660	-1.3480	hc	1	MOL	0.0130890605865177
13	H4	-3.6060	-0.5300	-1.0280	hc	1	MOL	-0.0014480429946745
14	H5	-2.4760	-1.3020	-2.0970	hc	1	MOL	-0.0014480429946745
15	H6	-1.7000	0.0710	0.5100	hc	1	MOL	0.013903235081947
16	H7	-2.0400	-1.6260	0.3870	hc	1	MOL	0.013903235081947
17	H8	0.0710	-2.0770	-0.3880	h1	1	MOL	0.0718422229084886
18	H9	-0.0100	-0.8230	-1.5940	h1	1	MOL	0.0718422229084886
19	H10	2.6800	2.0840	1.2080	h4	1	MOL	0.1170117401835705
20	H11	1.1460	1.4390	-1.0120	h4	1	MOL	0.2115805014385151
@<TRIPOS>BOND								
1	1	2	1					
2	1	10	1					
3	1	11	1					
4	1	12	1					
5	2	3	1					
6	2	13	1					
7	2	14	1					
8	3	4	1					
9	3	15	1					
10	3	16	1					
11	4	5	1					
12	4	17	1					
13	4	18	1					
14	5	6	1					
15	5	9	1					
16	6	7	2					
17	7	8	1					
18	8	9	2					
19	8	19	1					
20	9	20	1					
@<TRIPOS>SUBSTRUCTURE								
1	MOL	1	TEMP	0	****	****	0	ROOT
