@<TRIPOS>MOLECULE
MOL
   20    22     1     0     0
SMALL
No Charge or Current Charge


@<TRIPOS>ATOM
      1 C1          -3.1270     1.1670    -0.4460 c3         1 MOL       0.000000
      2 C2          -2.1210     0.2560    -1.1490 c3         1 MOL       0.000000
      3 C3          -1.6460    -0.9280    -0.2980 c3         1 MOL       0.000000
      4 C4          -0.7610    -0.5510     0.8960 c3         1 MOL       0.000000
      5 N1           0.6200    -0.2950     0.5220 n3         1 MOL       0.000000
      6 N2           1.0410     0.9360     0.3120 n3         1 MOL       0.000000
      7 N3           2.2620     0.8960    -0.0350 n3         1 MOL       0.000000
      8 C5           2.6680    -0.3920    -0.0610 c3         1 MOL       0.000000
      9 C6           1.6130    -1.1700     0.2970 c3         1 MOL       0.000000
     10 H1          -3.4680     1.9470    -1.1190 hc         1 MOL       0.000000
     11 H2          -2.6990     1.6590     0.4210 hc         1 MOL       0.000000
     12 H3          -4.0000     0.6090    -0.1180 hc         1 MOL       0.000000
     13 H4          -2.5790    -0.1420    -2.0510 hc         1 MOL       0.000000
     14 H5          -1.2640     0.8390    -1.4720 hc         1 MOL       0.000000
     15 H6          -2.5150    -1.4550     0.0900 hc         1 MOL       0.000000
     16 H7          -1.1060    -1.6380    -0.9170 hc         1 MOL       0.000000
     17 H8          -1.1130     0.3370     1.3980 h1         1 MOL       0.000000
     18 H9          -0.7500    -1.3560     1.6200 h1         1 MOL       0.000000
     19 H10          3.6670    -0.6650    -0.3220 h1         1 MOL       0.000000
     20 H11          1.4930    -2.2250     0.4120 h1         1 MOL       0.000000
@<TRIPOS>BOND
     1     1     2 1   
     2     1    10 1   
     3     1    11 1   
     4     1    12 1   
     5     2     3 1   
     6     2    13 1   
     7     2    14 1   
     8     3     4 1   
     9     3    15 1   
    10     3    16 1   
    11     4     5 1   
    12     4    17 1   
    13     4    18 1   
    14     5     6 1   
    15     5     9 1   
    16     6     7 1   
    17     6     7 1   
    18     7     8 1   
    19     8     9 1   
    20     8     9 1   
    21     8    19 1   
    22     9    20 1   
@<TRIPOS>SUBSTRUCTURE
     1 MOL         1 TEMP              0 ****  ****    0 ROOT
