@<TRIPOS>MOLECULE
MOL
   20    22     1     0     0
SMALL
No Charge or Current Charge


@<TRIPOS>ATOM
      1 C1          -2.2610     1.1860    -0.6190 c3         1 MOL       0.000000
      2 C2          -1.9470    -0.2430    -1.0670 c3         1 MOL       0.000000
      3 C3          -1.8050    -1.2510     0.0810 c3         1 MOL       0.000000
      4 C4          -0.5060    -1.2150     0.9310 c3         1 MOL       0.000000
      5 N1           0.5770    -0.3850     0.4310 n3         1 MOL       0.000000
      6 N2           0.8210     0.7930     0.9710 n3         1 MOL       0.000000
      7 N3           1.8230     1.3100     0.3880 n3         1 MOL       0.000000
      8 C5           2.2680     0.4560    -0.5600 c3         1 MOL       0.000000
      9 C6           1.4710    -0.6430    -0.5370 c3         1 MOL       0.000000
     10 H1          -2.3670     1.8410    -1.4780 hc         1 MOL       0.000000
     11 H2          -1.4840     1.5940     0.0140 hc         1 MOL       0.000000
     12 H3          -3.1960     1.2170    -0.0650 hc         1 MOL       0.000000
     13 H4          -2.7570    -0.5930    -1.7020 hc         1 MOL       0.000000
     14 H5          -1.0560    -0.2500    -1.6850 hc         1 MOL       0.000000
     15 H6          -2.6480    -1.1430     0.7570 hc         1 MOL       0.000000
     16 H7          -1.8910    -2.2470    -0.3430 hc         1 MOL       0.000000
     17 H8          -0.7110    -0.8290     1.9180 h1         1 MOL       0.000000
     18 H9          -0.1160    -2.2170     1.0520 h1         1 MOL       0.000000
     19 H10          3.1120     0.6830    -1.1740 h1         1 MOL       0.000000
     20 H11          1.4670    -1.5500    -1.1020 h1         1 MOL       0.000000
@<TRIPOS>BOND
     1     1     2 1   
     2     1    10 1   
     3     1    11 1   
     4     1    12 1   
     5     2     3 1   
     6     2    13 1   
     7     2    14 1   
     8     3     4 1   
     9     3    15 1   
    10     3    16 1   
    11     4     5 1   
    12     4    17 1   
    13     4    18 1   
    14     5     6 1   
    15     5     9 1   
    16     6     7 1   
    17     6     7 1   
    18     7     8 1   
    19     8     9 1   
    20     8     9 1   
    21     8    19 1   
    22     9    20 1   
@<TRIPOS>SUBSTRUCTURE
     1 MOL         1 TEMP              0 ****  ****    0 ROOT
