@<TRIPOS>MOLECULE
MOL
   20    22     1     0     0
SMALL
No Charge or Current Charge


@<TRIPOS>ATOM
      1 C1          -2.0100     0.7630    -1.5340 c3         1 MOL       0.000000
      2 C2          -2.2960    -0.7190    -1.2840 c3         1 MOL       0.000000
      3 C3          -1.5510    -1.3320    -0.0930 c3         1 MOL       0.000000
      4 C4          -0.0300    -1.4450    -0.2510 c3         1 MOL       0.000000
      5 N1           0.7030    -0.2750     0.2160 n3         1 MOL       0.000000
      6 N2           0.5640     0.1480     1.4550 n3         1 MOL       0.000000
      7 N3           1.3460     1.1330     1.6390 n3         1 MOL       0.000000
      8 C5           2.0290     1.3710     0.4990 c3         1 MOL       0.000000
      9 C6           1.6240     0.4620    -0.4260 c3         1 MOL       0.000000
     10 H1          -2.6370     1.1420    -2.3350 hc         1 MOL       0.000000
     11 H2          -0.9780     0.9370    -1.8180 hc         1 MOL       0.000000
     12 H3          -2.2090     1.3550    -0.6460 hc         1 MOL       0.000000
     13 H4          -3.3610    -0.8430    -1.1090 hc         1 MOL       0.000000
     14 H5          -2.0690    -1.2910    -2.1810 hc         1 MOL       0.000000
     15 H6          -1.7700    -0.7900     0.8200 hc         1 MOL       0.000000
     16 H7          -1.9270    -2.3410     0.0510 hc         1 MOL       0.000000
     17 H8           0.3360    -2.2930     0.3140 h1         1 MOL       0.000000
     18 H9           0.2470    -1.5970    -1.2860 h1         1 MOL       0.000000
     19 H10          2.7470     2.1580     0.4230 h1         1 MOL       0.000000
     20 H11          1.9010     0.2870    -1.4430 h1         1 MOL       0.000000
@<TRIPOS>BOND
     1     1     2 1   
     2     1    10 1   
     3     1    11 1   
     4     1    12 1   
     5     2     3 1   
     6     2    13 1   
     7     2    14 1   
     8     3     4 1   
     9     3    15 1   
    10     3    16 1   
    11     4     5 1   
    12     4    17 1   
    13     4    18 1   
    14     5     6 1   
    15     5     9 1   
    16     6     7 1   
    17     6     7 1   
    18     7     8 1   
    19     8     9 1   
    20     8     9 1   
    21     8    19 1   
    22     9    20 1   
@<TRIPOS>SUBSTRUCTURE
     1 MOL         1 TEMP              0 ****  ****    0 ROOT
