@<TRIPOS>MOLECULE								
MOL								
20	20	1	0	0				
SMALL								
No	Charge	or	Current	Charge				
@<TRIPOS>ATOM								
1	C1	-2.4160	0.8870	-2.1420	c3	1	MOL	-0.0574796410713743
2	C2	-2.6100	-0.4380	-1.4010	c3	1	MOL	0.0502276851611604
3	C3	-1.6600	-0.6300	-0.2120	c3	1	MOL	0.029434866161889
4	C4	-0.2020	-0.9050	-0.6280	c3	1	MOL	-0.1367489029942565
5	N1	0.7720	-0.2330	0.2130	na	1	MOL	0.3986932518358891
6	N2	1.1390	-0.7680	1.3580	nc	1	MOL	-0.2502196049522864
7	N3	1.9470	0.0250	1.9360	nd	1	MOL	-0.3193359951280445
8	C5	2.1170	1.1190	1.1620	cd	1	MOL	0.1155272094562996
9	C6	1.3590	0.9630	0.0460	cc	1	MOL	-0.3665531218424377
10	H1	-3.1240	0.9770	-2.9600	hc	1	MOL	0.0130890605865177
11	H2	-1.4200	0.9800	-2.5670	hc	1	MOL	0.0130890605865177
12	H3	-2.5710	1.7300	-1.4750	hc	1	MOL	0.0130890605865177
13	H4	-3.6320	-0.4870	-1.0360	hc	1	MOL	-0.0014480429946745
14	H5	-2.5000	-1.2670	-2.0980	hc	1	MOL	-0.0014480429946745
15	H6	-1.6830	0.2630	0.4030	hc	1	MOL	0.013903235081947
16	H7	-2.0070	-1.4420	0.4170	hc	1	MOL	0.013903235081947
17	H8	0.0220	-1.9610	-0.5930	h1	1	MOL	0.0718422229084886
18	H9	-0.0170	-0.5680	-1.6400	h1	1	MOL	0.0718422229084886
19	H10	2.7610	1.9210	1.4500	h4	1	MOL	0.1170117401835705
20	H11	1.2000	1.5720	-0.8180	h4	1	MOL	0.2115805014385151
@<TRIPOS>BOND								
1	1	2	1					
2	1	10	1					
3	1	11	1					
4	1	12	1					
5	2	3	1					
6	2	13	1					
7	2	14	1					
8	3	4	1					
9	3	15	1					
10	3	16	1					
11	4	5	1					
12	4	17	1					
13	4	18	1					
14	5	6	1					
15	5	9	1					
16	6	7	2					
17	7	8	1					
18	8	9	2					
19	8	19	1					
20	9	20	1					
@<TRIPOS>SUBSTRUCTURE								
1	MOL	1	TEMP	0	****	****	0	ROOT
