@<TRIPOS>MOLECULE
MOL
   20    22     1     0     0
SMALL
No Charge or Current Charge


@<TRIPOS>ATOM
      1 C1          -2.0830     1.0400    -0.8010 c3         1 MOL       0.000000
      2 C2          -1.9730    -0.4630    -1.0630 c3         1 MOL       0.000000
      3 C3          -1.7560    -1.3260     0.1910 c3         1 MOL       0.000000
      4 C4          -0.3220    -1.4360     0.7640 c3         1 MOL       0.000000
      5 N1           0.6170    -0.3940     0.3870 n3         1 MOL       0.000000
      6 N2           0.7760     0.6650     1.1540 n3         1 MOL       0.000000
      7 N3           1.6420     1.4270     0.6220 n3         1 MOL       0.000000
      8 C5           2.0800     0.8610    -0.5230 c3         1 MOL       0.000000
      9 C6           1.4260    -0.3180    -0.6830 c3         1 MOL       0.000000
     10 H1          -2.2860     1.5690    -1.7270 hc         1 MOL       0.000000
     11 H2          -1.1810     1.4550    -0.3720 hc         1 MOL       0.000000
     12 H3          -2.9000     1.2490    -0.1170 hc         1 MOL       0.000000
     13 H4          -2.8990    -0.7960    -1.5240 hc         1 MOL       0.000000
     14 H5          -1.1940    -0.6560    -1.7960 hc         1 MOL       0.000000
     15 H6          -2.4100    -0.9490     0.9710 hc         1 MOL       0.000000
     16 H7          -2.0860    -2.3400    -0.0130 hc         1 MOL       0.000000
     17 H8          -0.3460    -1.4450     1.8430 h1         1 MOL       0.000000
     18 H9           0.1240    -2.3690     0.4430 h1         1 MOL       0.000000
     19 H10          2.8220     1.3250    -1.1360 h1         1 MOL       0.000000
     20 H11          1.4700    -1.0790    -1.4310 h1         1 MOL       0.000000
@<TRIPOS>BOND
     1     1     2 1   
     2     1    10 1   
     3     1    11 1   
     4     1    12 1   
     5     2     3 1   
     6     2    13 1   
     7     2    14 1   
     8     3     4 1   
     9     3    15 1   
    10     3    16 1   
    11     4     5 1   
    12     4    17 1   
    13     4    18 1   
    14     5     6 1   
    15     5     9 1   
    16     6     7 1   
    17     6     7 1   
    18     7     8 1   
    19     8     9 1   
    20     8     9 1   
    21     8    19 1   
    22     9    20 1   
@<TRIPOS>SUBSTRUCTURE
     1 MOL         1 TEMP              0 ****  ****    0 ROOT
