@<TRIPOS>MOLECULE
MOL
   20    22     1     0     0
SMALL
No Charge or Current Charge


@<TRIPOS>ATOM
      1 C1          -2.6650     1.3150    -0.5790 c3         1 MOL       0.000000
      2 C2          -1.9350     0.1400    -1.2320 c3         1 MOL       0.000000
      3 C3          -1.7040    -1.0570    -0.3030 c3         1 MOL       0.000000
      4 C4          -0.8020    -0.7880     0.9020 c3         1 MOL       0.000000
      5 N1           0.5380    -0.3610     0.5330 n3         1 MOL       0.000000
      6 N2           0.8830     0.9080     0.6260 n3         1 MOL       0.000000
      7 N3           2.0800     1.0340     0.2190 n3         1 MOL       0.000000
      8 C5           2.5460    -0.1760    -0.1560 c3         1 MOL       0.000000
      9 C6           1.5570    -1.0850     0.0430 c3         1 MOL       0.000000
     10 H1          -2.8890     2.0790    -1.3160 hc         1 MOL       0.000000
     11 H2          -2.0670     1.7800     0.1960 hc         1 MOL       0.000000
     12 H3          -3.6070     0.9960    -0.1380 hc         1 MOL       0.000000
     13 H4          -2.5130    -0.2090    -2.0830 hc         1 MOL       0.000000
     14 H5          -0.9840     0.4820    -1.6290 hc         1 MOL       0.000000
     15 H6          -2.6590    -1.4090     0.0830 hc         1 MOL       0.000000
     16 H7          -1.2840    -1.8790    -0.8770 hc         1 MOL       0.000000
     17 H8          -1.2000    -0.0070     1.5310 h1         1 MOL       0.000000
     18 H9          -0.7110    -1.6840     1.5050 h1         1 MOL       0.000000
     19 H10          3.5380    -0.3100    -0.5290 h1         1 MOL       0.000000
     20 H11          1.4970    -2.1410    -0.1110 h1         1 MOL       0.000000
@<TRIPOS>BOND
     1     1     2 1   
     2     1    10 1   
     3     1    11 1   
     4     1    12 1   
     5     2     3 1   
     6     2    13 1   
     7     2    14 1   
     8     3     4 1   
     9     3    15 1   
    10     3    16 1   
    11     4     5 1   
    12     4    17 1   
    13     4    18 1   
    14     5     6 1   
    15     5     9 1   
    16     6     7 1   
    17     6     7 1   
    18     7     8 1   
    19     8     9 1   
    20     8     9 1   
    21     8    19 1   
    22     9    20 1   
@<TRIPOS>SUBSTRUCTURE
     1 MOL         1 TEMP              0 ****  ****    0 ROOT
