@<TRIPOS>MOLECULE
MOL
   20    22     1     0     0
SMALL
No Charge or Current Charge


@<TRIPOS>ATOM
      1 C1          -3.2560     1.1960    -0.4840 c3         1 MOL       0.000000
      2 C2          -2.1640     0.3900    -1.1890 c3         1 MOL       0.000000
      3 C3          -1.6370    -0.7930    -0.3680 c3         1 MOL       0.000000
      4 C4          -0.7870    -0.3980     0.8490 c3         1 MOL       0.000000
      5 N1           0.6290    -0.2800     0.5400 n3         1 MOL       0.000000
      6 N2           1.1410     0.8800     0.1820 n3         1 MOL       0.000000
      7 N3           2.3740     0.7170    -0.0810 n3         1 MOL       0.000000
      8 C5           2.6930    -0.5830     0.1030 c3         1 MOL       0.000000
      9 C6           1.5710    -1.2360     0.5020 c3         1 MOL       0.000000
     10 H1          -3.6110     1.9980    -1.1230 hc         1 MOL       0.000000
     11 H2          -2.9010     1.6530     0.4350 hc         1 MOL       0.000000
     12 H3          -4.1070     0.5680    -0.2360 hc         1 MOL       0.000000
     13 H4          -2.5630     0.0050    -2.1230 hc         1 MOL       0.000000
     14 H5          -1.3370     1.0430    -1.4540 hc         1 MOL       0.000000
     15 H6          -2.4830    -1.3770    -0.0130 hc         1 MOL       0.000000
     16 H7          -1.0500    -1.4530    -0.9980 hc         1 MOL       0.000000
     17 H8          -1.0910     0.5500     1.2670 h1         1 MOL       0.000000
     18 H9          -0.8730    -1.1440     1.6290 h1         1 MOL       0.000000
     19 H10          3.6840    -0.9490    -0.0540 h1         1 MOL       0.000000
     20 H11          1.3740    -2.2540     0.7580 h1         1 MOL       0.000000
@<TRIPOS>BOND
     1     1     2 1   
     2     1    10 1   
     3     1    11 1   
     4     1    12 1   
     5     2     3 1   
     6     2    13 1   
     7     2    14 1   
     8     3     4 1   
     9     3    15 1   
    10     3    16 1   
    11     4     5 1   
    12     4    17 1   
    13     4    18 1   
    14     5     6 1   
    15     5     9 1   
    16     6     7 1   
    17     6     7 1   
    18     7     8 1   
    19     8     9 1   
    20     8     9 1   
    21     8    19 1   
    22     9    20 1   
@<TRIPOS>SUBSTRUCTURE
     1 MOL         1 TEMP              0 ****  ****    0 ROOT
