@<TRIPOS>MOLECULE
MOL
   20    22     1     0     0
SMALL
No Charge or Current Charge


@<TRIPOS>ATOM
      1 C1          -2.1930     1.1480    -0.6770 c3         1 MOL       0.000000
      2 C2          -1.9660    -0.3170    -1.0510 c3         1 MOL       0.000000
      3 C3          -1.8080    -1.2650     0.1470 c3         1 MOL       0.000000
      4 C4          -0.4500    -1.2800     0.9040 c3         1 MOL       0.000000
      5 N1           0.5870    -0.3870     0.4170 n3         1 MOL       0.000000
      6 N2           0.8240     0.7570     1.0290 n3         1 MOL       0.000000
      7 N3           1.7840     1.3430     0.4420 n3         1 MOL       0.000000
      8 C5           2.2080     0.5720    -0.5830 c3         1 MOL       0.000000
      9 C6           1.4450    -0.5500    -0.6040 c3         1 MOL       0.000000
     10 H1          -2.3350     1.7510    -1.5690 hc         1 MOL       0.000000
     11 H2          -1.3620     1.5650    -0.1240 hc         1 MOL       0.000000
     12 H3          -3.0860     1.2520    -0.0660 hc         1 MOL       0.000000
     13 H4          -2.8230    -0.6660    -1.6210 hc         1 MOL       0.000000
     14 H5          -1.1110    -0.4020    -1.7150 hc         1 MOL       0.000000
     15 H6          -2.5910    -1.0450     0.8650 hc         1 MOL       0.000000
     16 H7          -1.9960    -2.2770    -0.1980 hc         1 MOL       0.000000
     17 H8          -0.5920    -1.0060     1.9380 h1         1 MOL       0.000000
     18 H9          -0.0350    -2.2790     0.8910 h1         1 MOL       0.000000
     19 H10          3.0170     0.8670    -1.2160 h1         1 MOL       0.000000
     20 H11          1.4410    -1.4160    -1.2290 h1         1 MOL       0.000000
@<TRIPOS>BOND
     1     1     2 1   
     2     1    10 1   
     3     1    11 1   
     4     1    12 1   
     5     2     3 1   
     6     2    13 1   
     7     2    14 1   
     8     3     4 1   
     9     3    15 1   
    10     3    16 1   
    11     4     5 1   
    12     4    17 1   
    13     4    18 1   
    14     5     6 1   
    15     5     9 1   
    16     6     7 1   
    17     6     7 1   
    18     7     8 1   
    19     8     9 1   
    20     8     9 1   
    21     8    19 1   
    22     9    20 1   
@<TRIPOS>SUBSTRUCTURE
     1 MOL         1 TEMP              0 ****  ****    0 ROOT
