@<TRIPOS>MOLECULE
MOL
   20    22     1     0     0
SMALL
No Charge or Current Charge


@<TRIPOS>ATOM
      1 C1          -1.9910     0.7870    -1.2670 c3         1 MOL       0.000000
      2 C2          -2.1230    -0.7370    -1.2100 c3         1 MOL       0.000000
      3 C3          -1.5670    -1.4030     0.0560 c3         1 MOL       0.000000
      4 C4          -0.0500    -1.5790     0.1200 c3         1 MOL       0.000000
      5 N1           0.6930    -0.3380     0.2760 n3         1 MOL       0.000000
      6 N2           0.4850     0.4370     1.3180 n3         1 MOL       0.000000
      7 N3           1.2630     1.4390     1.2430 n3         1 MOL       0.000000
      8 C5           2.0140     1.3280     0.1260 c3         1 MOL       0.000000
      9 C6           1.6560     0.1790    -0.5040 c3         1 MOL       0.000000
     10 H1          -2.5000     1.1760    -2.1440 hc         1 MOL       0.000000
     11 H2          -0.9600     1.1150    -1.3130 hc         1 MOL       0.000000
     12 H3          -2.4420     1.2470    -0.3930 hc         1 MOL       0.000000
     13 H4          -3.1780    -0.9880    -1.2760 hc         1 MOL       0.000000
     14 H5          -1.6570    -1.1810    -2.0880 hc         1 MOL       0.000000
     15 H6          -1.8970    -0.8670     0.9400 hc         1 MOL       0.000000
     16 H7          -1.9830    -2.4050     0.1280 hc         1 MOL       0.000000
     17 H8           0.2060    -2.2190     0.9550 h1         1 MOL       0.000000
     18 H9           0.3170    -2.0510    -0.7830 h1         1 MOL       0.000000
     19 H10          2.7430     2.0620    -0.1410 h1         1 MOL       0.000000
     20 H11          1.9890    -0.2920    -1.4030 h1         1 MOL       0.000000
@<TRIPOS>BOND
     1     1     2 1   
     2     1    10 1   
     3     1    11 1   
     4     1    12 1   
     5     2     3 1   
     6     2    13 1   
     7     2    14 1   
     8     3     4 1   
     9     3    15 1   
    10     3    16 1   
    11     4     5 1   
    12     4    17 1   
    13     4    18 1   
    14     5     6 1   
    15     5     9 1   
    16     6     7 1   
    17     6     7 1   
    18     7     8 1   
    19     8     9 1   
    20     8     9 1   
    21     8    19 1   
    22     9    20 1   
@<TRIPOS>SUBSTRUCTURE
     1 MOL         1 TEMP              0 ****  ****    0 ROOT
