@<TRIPOS>MOLECULE								
MOL								
20	20	1	0	0				
SMALL								
No	Charge	or	Current	Charge				
@<TRIPOS>ATOM								
1	C1	-3.4260	1.0600	-0.3710	c3	1	MOL	-0.0574796410713743
2	C2	-2.2780	0.4030	-1.1400	c3	1	MOL	0.0502276851611604
3	C3	-1.5990	-0.7420	-0.3800	c3	1	MOL	0.029434866161889
4	C4	-0.7510	-0.2890	0.8230	c3	1	MOL	-0.1367489029942565
5	N1	0.6710	-0.2310	0.5260	na	1	MOL	0.3986932518358891
6	N2	1.1990	0.8600	0.0110	nc	1	MOL	-0.2502196049522864
7	N3	2.4320	0.6470	-0.2140	nd	1	MOL	-0.3193359951280445
8	C5	2.7340	-0.6160	0.1570	cd	1	MOL	0.1155272094562996
9	C6	1.6010	-1.1930	0.6340	cc	1	MOL	-0.3665531218424377
10	H1	-3.8790	1.8500	-0.9600	hc	1	MOL	0.0130890605865177
11	H2	-3.0930	1.5060	0.5620	hc	1	MOL	0.0130890605865177
12	H3	-4.2010	0.3370	-0.1340	hc	1	MOL	0.0130890605865177
13	H4	-2.6660	0.0110	-2.0760	hc	1	MOL	-0.0014480429946745
14	H5	-1.5350	1.1500	-1.4050	hc	1	MOL	-0.0014480429946745
15	H6	-2.3650	-1.4280	-0.0260	hc	1	MOL	0.013903235081947
16	H7	-0.9660	-1.3100	-1.0540	hc	1	MOL	0.013903235081947
17	H8	-1.0330	0.6940	1.1680	h1	1	MOL	0.0718422229084886
18	H9	-0.8650	-0.9730	1.6540	h1	1	MOL	0.0718422229084886
19	H10	3.7220	-1.0110	0.0640	h4	1	MOL	0.1170117401835705
20	H11	1.3890	-2.1630	1.0300	h4	1	MOL	0.2115805014385151
@<TRIPOS>BOND								
1	1	2	1					
2	1	10	1					
3	1	11	1					
4	1	12	1					
5	2	3	1					
6	2	13	1					
7	2	14	1					
8	3	4	1					
9	3	15	1					
10	3	16	1					
11	4	5	1					
12	4	17	1					
13	4	18	1					
14	5	6	1					
15	5	9	1					
16	6	7	2					
17	7	8	1					
18	8	9	2					
19	8	19	1					
20	9	20	1					
@<TRIPOS>SUBSTRUCTURE								
1	MOL	1	TEMP	0	****	****	0	ROOT
