@<TRIPOS>MOLECULE								
MOL								
20	20	1	0	0				
SMALL								
No	Charge	or	Current	Charge				
@<TRIPOS>ATOM								
1	C1	-2.0510	0.8870	-1.0170	c3	1	MOL	-0.0574796410713743
2	C2	-1.9660	-0.6330	-1.1730	c3	1	MOL	0.0502276851611604
3	C3	-1.6210	-1.3990	0.1160	c3	1	MOL	0.029434866161889
4	C4	-0.1300	-1.5960	0.4040	c3	1	MOL	-0.1367489029942565
5	N1	0.6720	-0.3870	0.3270	na	1	MOL	0.3986932518358891
6	N2	0.6050	0.5140	1.2840	nc	1	MOL	-0.2502196049522864
7	N3	1.3760	1.4800	0.9890	nd	1	MOL	-0.3193359951280445
8	C5	1.9730	1.2180	-0.1940	cd	1	MOL	0.1155272094562996
9	C6	1.5260	0.0110	-0.6290	cc	1	MOL	-0.3665531218424377
10	H1	-2.3310	1.3470	-1.9600	hc	1	MOL	0.0130890605865177
11	H2	-1.1160	1.3270	-0.6970	hc	1	MOL	0.0130890605865177
12	H3	-2.8070	1.1530	-0.2840	hc	1	MOL	0.0130890605865177
13	H4	-2.9270	-0.9910	-1.5290	hc	1	MOL	-0.0014480429946745
14	H5	-1.2500	-0.8850	-1.9540	hc	1	MOL	-0.0014480429946745
15	H6	-2.0800	-0.9010	0.9640	hc	1	MOL	0.013903235081947
16	H7	-2.0500	-2.3970	0.0750	hc	1	MOL	0.013903235081947
17	H8	0.0070	-2.0140	1.3920	h1	1	MOL	0.0718422229084886
18	H9	0.2970	-2.2880	-0.3110	h1	1	MOL	0.0718422229084886
19	H10	2.6710	1.8940	-0.6380	h4	1	MOL	0.1170117401835705
20	H11	1.7360	-0.5740	-1.4980	h4	1	MOL	0.2115805014385151
@<TRIPOS>BOND								
1	1	2	1					
2	1	10	1					
3	1	11	1					
4	1	12	1					
5	2	3	1					
6	2	13	1					
7	2	14	1					
8	3	4	1					
9	3	15	1					
10	3	16	1					
11	4	5	1					
12	4	17	1					
13	4	18	1					
14	5	6	1					
15	5	9	1					
16	6	7	2					
17	7	8	1					
18	8	9	2					
19	8	19	1					
20	9	20	1					
@<TRIPOS>SUBSTRUCTURE								
1	MOL	1	TEMP	0	****	****	0	ROOT
