@<TRIPOS>MOLECULE
MOL
   20    22     1     0     0
SMALL
No Charge or Current Charge


@<TRIPOS>ATOM
      1 C1          -2.0390     0.8420    -1.1190 c3         1 MOL       0.000000
      2 C2          -2.0290    -0.6880    -1.1870 c3         1 MOL       0.000000
      3 C3          -1.5940    -1.3950     0.1070 c3         1 MOL       0.000000
      4 C4          -0.0890    -1.5990     0.2850 c3         1 MOL       0.000000
      5 N1           0.6870    -0.3700     0.3050 n3         1 MOL       0.000000
      6 N2           0.5610     0.4770     1.3040 n3         1 MOL       0.000000
      7 N3           1.3270     1.4690     1.0940 n3         1 MOL       0.000000
      8 C5           1.9830     1.2780    -0.0710 c3         1 MOL       0.000000
      9 C6           1.5750     0.0900    -0.5890 c3         1 MOL       0.000000
     10 H1          -2.4090     1.2570    -2.0510 hc         1 MOL       0.000000
     11 H2          -1.0570     1.2580    -0.9370 hc         1 MOL       0.000000
     12 H3          -2.6930     1.1850    -0.3230 hc         1 MOL       0.000000
     13 H4          -3.0340    -1.0220    -1.4290 hc         1 MOL       0.000000
     14 H5          -1.4010    -1.0170    -2.0130 hc         1 MOL       0.000000
     15 H6          -1.9820    -0.8630     0.9690 hc         1 MOL       0.000000
     16 H7          -2.0310    -2.3900     0.1360 hc         1 MOL       0.000000
     17 H8           0.1050    -2.1220     1.2120 h1         1 MOL       0.000000
     18 H9           0.3070    -2.2010    -0.5240 h1         1 MOL       0.000000
     19 H10          2.6880     1.9880    -0.4470 h1         1 MOL       0.000000
     20 H11          1.8330    -0.4430    -1.4780 h1         1 MOL       0.000000
@<TRIPOS>BOND
     1     1     2 1   
     2     1    10 1   
     3     1    11 1   
     4     1    12 1   
     5     2     3 1   
     6     2    13 1   
     7     2    14 1   
     8     3     4 1   
     9     3    15 1   
    10     3    16 1   
    11     4     5 1   
    12     4    17 1   
    13     4    18 1   
    14     5     6 1   
    15     5     9 1   
    16     6     7 1   
    17     6     7 1   
    18     7     8 1   
    19     8     9 1   
    20     8     9 1   
    21     8    19 1   
    22     9    20 1   
@<TRIPOS>SUBSTRUCTURE
     1 MOL         1 TEMP              0 ****  ****    0 ROOT
