@<TRIPOS>MOLECULE
MOL
   20    22     1     0     0
SMALL
No Charge or Current Charge


@<TRIPOS>ATOM
      1 C1          -2.9100     1.2170    -0.4850 c3         1 MOL       0.000000
      2 C2          -2.0410     0.1630    -1.1730 c3         1 MOL       0.000000
      3 C3          -1.6630    -1.0250    -0.2820 c3         1 MOL       0.000000
      4 C4          -0.7660    -0.6870     0.9110 c3         1 MOL       0.000000
      5 N1           0.5870    -0.3230     0.5220 n3         1 MOL       0.000000
      6 N2           0.9490     0.9430     0.4700 n3         1 MOL       0.000000
      7 N3           2.1550     1.0040     0.0780 n3         1 MOL       0.000000
      8 C5           2.6100    -0.2480    -0.1420 c3         1 MOL       0.000000
      9 C6           1.6030    -1.1140     0.1420 c3         1 MOL       0.000000
     10 H1          -3.2260     1.9720    -1.1980 hc         1 MOL       0.000000
     11 H2          -2.3750     1.7290     0.3070 hc         1 MOL       0.000000
     12 H3          -3.8050     0.7720    -0.0570 hc         1 MOL       0.000000
     13 H4          -2.5750    -0.2270    -2.0360 hc         1 MOL       0.000000
     14 H5          -1.1400     0.6330    -1.5580 hc         1 MOL       0.000000
     15 H6          -2.5700    -1.4770     0.1150 hc         1 MOL       0.000000
     16 H7          -1.1750    -1.7900    -0.8790 hc         1 MOL       0.000000
     17 H8          -1.1510     0.1420     1.4840 h1         1 MOL       0.000000
     18 H9          -0.6940    -1.5410     1.5730 h1         1 MOL       0.000000
     19 H10          3.6080    -0.4380    -0.4750 h1         1 MOL       0.000000
     20 H11          1.5300    -2.1790     0.1120 h1         1 MOL       0.000000
@<TRIPOS>BOND
     1     1     2 1   
     2     1    10 1   
     3     1    11 1   
     4     1    12 1   
     5     2     3 1   
     6     2    13 1   
     7     2    14 1   
     8     3     4 1   
     9     3    15 1   
    10     3    16 1   
    11     4     5 1   
    12     4    17 1   
    13     4    18 1   
    14     5     6 1   
    15     5     9 1   
    16     6     7 1   
    17     6     7 1   
    18     7     8 1   
    19     8     9 1   
    20     8     9 1   
    21     8    19 1   
    22     9    20 1   
@<TRIPOS>SUBSTRUCTURE
     1 MOL         1 TEMP              0 ****  ****    0 ROOT
