@<TRIPOS>MOLECULE								
MOL								
57	57	1	0	0				
SMALL								
No	Charge	or	Current	Charge				
@<TRIPOS>ATOM								
1	O1	5.7760	2.1560	0.7690	o	1	MOL	-0.5518199855439618
2	C1	5.4000	1.4510	-0.1670	c	1	MOL	0.6469437514891021
3	C2	4.9090	0.0040	0.0440	c3	1	MOL	-0.5810633207643319
4	N1	5.6150	-0.5320	1.2020	ns	1	MOL	-0.0414317991476663
5	C3	6.7930	-1.2240	1.0240	c	1	MOL	0.1233622480091433
6	C4	7.5450	-1.4980	2.2980	c3	1	MOL	-0.5751440831858688
7	O2	7.2050	-1.5880	-0.0730	o	1	MOL	0.6746098196269035
8	C5	3.3910	0.0140	0.2650	c3	1	MOL	-0.3761860108560959
9	C6	2.8050	-1.4010	0.3230	c3	1	MOL	-0.553279665246011
10	C7	1.3080	-1.4260	0.6420	c3	1	MOL	-0.0584676777479291
11	C8	0.4430	-0.8070	-0.4540	c3	1	MOL	0.2782795118068908
12	N2	-0.9700	-0.9510	-0.1740	na	1	MOL	-0.3386963957817897
13	C9	-1.8050	-0.0460	0.4070	cc	1	MOL	0.3152783821465926
14	C10	-3.0260	-0.6830	0.4190	cd	1	MOL	-0.0321407338158767
15	N3	-2.8890	-1.9250	-0.1450	nd	1	MOL	-0.0105264887501758
16	N4	-1.6270	-2.0720	-0.5210	nc	1	MOL	-0.0125606144830193
17	C11	-4.3490	-0.1990	0.8900	c3	1	MOL	0.0111919146559374
18	C12	-5.2340	0.2780	-0.2700	c3	1	MOL	0.0538911303654743
19	C13	-6.1330	-0.8580	-0.8050	c	1	MOL	0.6367742823852633
20	N5	-5.4810	-1.9020	-1.4200	ns	1	MOL	-0.5841591935210715
21	C14	-6.1980	-3.0650	-1.8770	c3	1	MOL	-0.004565695732726
22	O3	-7.3610	-0.8070	-0.7000	o	1	MOL	-0.5394739095945384
23	N6	-6.1310	1.3600	0.1480	ns	1	MOL	-0.5616926355319243
24	C15	-5.6840	2.6430	0.3230	c	1	MOL	0.656007993752241
25	C16	-6.7630	3.6450	0.6330	c3	1	MOL	-0.339527685166403
26	O4	-4.5010	2.9570	0.2410	o	1	MOL	-0.5461839798530865
27	N7	5.3040	1.9030	-1.4680	ns	1	MOL	-0.293722206606584
28	C17	5.8050	3.2090	-1.8190	c3	1	MOL	-0.286170676557048
29	H1	5.1550	-0.5870	-0.8470	h1	1	MOL	0.3037619553875005
30	H2	5.5730	0.0530	2.0320	hn	1	MOL	0.0740534143603278
31	H3	6.9160	-1.3360	3.1780	hc	1	MOL	0.0740534143603278
32	H4	8.4120	-0.8350	2.3510	hc	1	MOL	0.0740534143603278
33	H5	7.8750	-2.5400	2.3010	hc	1	MOL	0.0505341454613234
34	H6	3.1530	0.5480	1.1950	hc	1	MOL	0.288314285483688
35	H7	2.9140	0.5740	-0.5480	hc	1	MOL	0.1172559820884865
36	H8	2.9870	-1.9150	-0.6290	hc	1	MOL	0.1172559820884865
37	H9	3.3230	-1.9790	1.0980	hc	1	MOL	0.1172559820884865
38	H10	1.1240	-0.9140	1.5950	hc	1	MOL	0.0400824280552186
39	H11	1.0070	-2.4710	0.7940	hc	1	MOL	0.0400824280552186
40	H12	0.6420	0.2640	-0.5600	h1	1	MOL	0.1649520507598439
41	H13	0.6340	-1.2820	-1.4240	h1	1	MOL	0.0645162814351125
42	H14	-1.4870	0.9320	0.7380	h4	1	MOL	0.0645162814351125
43	H15	-4.1790	0.6110	1.6100	hc	1	MOL	0.0219757689160294
44	H16	-4.8470	-1.0010	1.4510	hc	1	MOL	0.0219757689160294
45	H17	-4.6360	0.6620	-1.1070	h1	1	MOL	0.0235264231037009
46	H18	-4.4760	-2.0020	-1.2840	hn	1	MOL	0.0235264231037009
47	H19	-5.5600	-3.6160	-2.5710	h1	1	MOL	0.0166877206832477
48	H20	-7.1240	-2.7680	-2.3760	h1	1	MOL	0.0166877206832477
49	H21	-6.4340	-3.6910	-1.0130	h1	1	MOL	0.0700553433396818
50	H22	-7.1280	1.1640	0.0780	hn	1	MOL	0.298555451340528
51	H23	-7.7350	3.1640	0.7700	hc	1	MOL	0.0647352803056384
52	H24	-6.5060	4.1710	1.5560	hc	1	MOL	0.0647352803056384
53	H25	-6.8360	4.3580	-0.1920	hc	1	MOL	0.0647352803056384
54	H26	5.2840	1.2040	-2.2010	hn	1	MOL	0.2872611173091558
55	H27	6.8980	3.1780	-1.8190	h1	1	MOL	0.1084426999722868
56	H28	5.4410	3.4640	-2.8170	h1	1	MOL	0.1084426999722868
57	H29	5.4620	3.9520	-1.0940	h1	1	MOL	0.1084426999722868
@<TRIPOS>BOND								
1	1	2	2					
2	2	3	1					
3	2	27	1					
4	3	4	1					
5	3	8	1					
6	3	29	1					
7	4	5	1					
8	4	30	1					
9	5	6	1					
10	5	7	2					
11	6	31	1					
12	6	32	1					
13	6	33	1					
14	8	9	1					
15	8	34	1					
16	8	35	1					
17	9	10	1					
18	9	36	1					
19	9	37	1					
20	10	11	1					
21	10	38	1					
22	10	39	1					
23	11	12	1					
24	11	40	1					
25	11	41	1					
26	12	13	1					
27	12	16	1					
28	13	14	2					
29	13	42	1					
30	14	15	1					
31	14	17	1					
32	15	16	2					
33	17	18	1					
34	17	43	1					
35	17	44	1					
36	18	19	1					
37	18	23	1					
38	18	45	1					
39	19	20	1					
40	19	22	2					
41	20	21	1					
42	20	46	1					
43	21	47	1					
44	21	48	1					
45	21	49	1					
46	23	24	1					
47	23	50	1					
48	24	25	1					
49	24	26	2					
50	25	51	1					
51	25	52	1					
52	25	53	1					
53	27	28	1					
54	27	54	1					
55	28	55	1					
56	28	56	1					
57	28	57	1					
@<TRIPOS>SUBSTRUCTURE								
1	MOL	1	TEMP	0	****	****	0	ROOT
