@<TRIPOS>MOLECULE
MOL
   20    22     1     0     0
SMALL
No Charge or Current Charge


@<TRIPOS>ATOM
      1 C1          -2.3120     0.9610    -2.6420 c3         1 MOL       0.000000
      2 C2          -1.0620     0.7880    -1.7800 c3         1 MOL       0.000000
      3 C3          -0.6920    -0.6830    -1.5760 c3         1 MOL       0.000000
      4 C4           0.6710    -0.9020    -0.9250 c3         1 MOL       0.000000
      5 N1           0.7510    -0.3700     0.4260 n3         1 MOL       0.000000
      6 N2           0.0850    -0.9490     1.4040 n3         1 MOL       0.000000
      7 N3           0.2980    -0.3040     2.4780 n3         1 MOL       0.000000
      8 C5           1.1240     0.7320     2.2120 c3         1 MOL       0.000000
      9 C6           1.4210     0.6980     0.8870 c3         1 MOL       0.000000
     10 H1          -2.5580     2.0110    -2.7660 hc         1 MOL       0.000000
     11 H2          -3.1700     0.4710    -2.1910 hc         1 MOL       0.000000
     12 H3          -2.1680     0.5340    -3.6310 hc         1 MOL       0.000000
     13 H4          -0.2300     1.3070    -2.2550 hc         1 MOL       0.000000
     14 H5          -1.2140     1.2630    -0.8160 hc         1 MOL       0.000000
     15 H6          -1.4510    -1.1800    -0.9820 hc         1 MOL       0.000000
     16 H7          -0.6670    -1.1880    -2.5400 hc         1 MOL       0.000000
     17 H8           0.8980    -1.9580    -0.8710 h1         1 MOL       0.000000
     18 H9           1.4530    -0.4220    -1.5000 h1         1 MOL       0.000000
     19 H10          1.4420     1.4110     2.9720 h1         1 MOL       0.000000
     20 H11          2.0290     1.3150     0.2610 h1         1 MOL       0.000000
@<TRIPOS>BOND
     1     1     2 1   
     2     1    10 1   
     3     1    11 1   
     4     1    12 1   
     5     2     3 1   
     6     2    13 1   
     7     2    14 1   
     8     3     4 1   
     9     3    15 1   
    10     3    16 1   
    11     4     5 1   
    12     4    17 1   
    13     4    18 1   
    14     5     6 1   
    15     5     9 1   
    16     6     7 1   
    17     6     7 1   
    18     7     8 1   
    19     8     9 1   
    20     8     9 1   
    21     8    19 1   
    22     9    20 1   
@<TRIPOS>SUBSTRUCTURE
     1 MOL         1 TEMP              0 ****  ****    0 ROOT
