@<TRIPOS>MOLECULE
MOL
   20    22     1     0     0
SMALL
No Charge or Current Charge


@<TRIPOS>ATOM
      1 C1          -1.8190     0.6100    -1.4910 c3         1 MOL       0.000000
      2 C2          -2.3470    -0.7380    -0.9970 c3         1 MOL       0.000000
      3 C3          -1.4750    -1.5020     0.0170 c3         1 MOL       0.000000
      4 C4           0.0380    -1.4950    -0.2100 c3         1 MOL       0.000000
      5 N1           0.6930    -0.2510     0.1750 n3         1 MOL       0.000000
      6 N2           0.4630     0.2960     1.3500 n3         1 MOL       0.000000
      7 N3           1.2050     1.3200     1.4750 n3         1 MOL       0.000000
      8 C5           1.9600     1.4540     0.3630 c3         1 MOL       0.000000
      9 C6           1.6370     0.4400    -0.4820 c3         1 MOL       0.000000
     10 H1          -2.5550     1.0790    -2.1350 hc         1 MOL       0.000000
     11 H2          -0.9090     0.5000    -2.0700 hc         1 MOL       0.000000
     12 H3          -1.6120     1.2890    -0.6710 hc         1 MOL       0.000000
     13 H4          -3.3260    -0.5970    -0.5490 hc         1 MOL       0.000000
     14 H5          -2.5060    -1.3740    -1.8660 hc         1 MOL       0.000000
     15 H6          -1.6550    -1.1260     1.0160 hc         1 MOL       0.000000
     16 H7          -1.7880    -2.5420     0.0220 hc         1 MOL       0.000000
     17 H8           0.4890    -2.2930     0.3680 h1         1 MOL       0.000000
     18 H9           0.2840    -1.6680    -1.2500 h1         1 MOL       0.000000
     19 H10          2.6610     2.2500     0.2470 h1         1 MOL       0.000000
     20 H11          1.9830     0.1670    -1.4550 h1         1 MOL       0.000000
@<TRIPOS>BOND
     1     1     2 1   
     2     1    10 1   
     3     1    11 1   
     4     1    12 1   
     5     2     3 1   
     6     2    13 1   
     7     2    14 1   
     8     3     4 1   
     9     3    15 1   
    10     3    16 1   
    11     4     5 1   
    12     4    17 1   
    13     4    18 1   
    14     5     6 1   
    15     5     9 1   
    16     6     7 1   
    17     6     7 1   
    18     7     8 1   
    19     8     9 1   
    20     8     9 1   
    21     8    19 1   
    22     9    20 1   
@<TRIPOS>SUBSTRUCTURE
     1 MOL         1 TEMP              0 ****  ****    0 ROOT
