@<TRIPOS>MOLECULE
MOL
   20    22     1     0     0
SMALL
No Charge or Current Charge


@<TRIPOS>ATOM
      1 C1          -1.7870     0.6520    -1.5950 c3         1 MOL       0.000000
      2 C2          -2.3710    -0.5730    -0.8860 c3         1 MOL       0.000000
      3 C3          -1.3860    -1.5690    -0.2150 c3         1 MOL       0.000000
      4 C4           0.1100    -1.4140    -0.4900 c3         1 MOL       0.000000
      5 N1           0.7060    -0.2350     0.1240 n3         1 MOL       0.000000
      6 N2           0.4320     0.0930     1.3690 n3         1 MOL       0.000000
      7 N3           1.1260     1.1100     1.6840 n3         1 MOL       0.000000
      8 C5           1.8910     1.4640     0.6290 c3         1 MOL       0.000000
      9 C6           1.6290     0.5970    -0.3830 c3         1 MOL       0.000000
     10 H1          -2.5900     1.2180    -2.0560 hc         1 MOL       0.000000
     11 H2          -1.0970     0.3750    -2.3870 hc         1 MOL       0.000000
     12 H3          -1.2700     1.3130    -0.9110 hc         1 MOL       0.000000
     13 H4          -3.0720    -0.2300    -0.1330 hc         1 MOL       0.000000
     14 H5          -2.9650    -1.1210    -1.6130 hc         1 MOL       0.000000
     15 H6          -1.5170    -1.5440     0.8590 hc         1 MOL       0.000000
     16 H7          -1.6410    -2.5780    -0.5250 hc         1 MOL       0.000000
     17 H8           0.6270    -2.2860    -0.1060 h1         1 MOL       0.000000
     18 H9           0.3190    -1.3530    -1.5490 h1         1 MOL       0.000000
     19 H10          2.5570     2.2980     0.6670 h1         1 MOL       0.000000
     20 H11          2.0000     0.5110    -1.3810 h1         1 MOL       0.000000
@<TRIPOS>BOND
     1     1     2 1   
     2     1    10 1   
     3     1    11 1   
     4     1    12 1   
     5     2     3 1   
     6     2    13 1   
     7     2    14 1   
     8     3     4 1   
     9     3    15 1   
    10     3    16 1   
    11     4     5 1   
    12     4    17 1   
    13     4    18 1   
    14     5     6 1   
    15     5     9 1   
    16     6     7 1   
    17     6     7 1   
    18     7     8 1   
    19     8     9 1   
    20     8     9 1   
    21     8    19 1   
    22     9    20 1   
@<TRIPOS>SUBSTRUCTURE
     1 MOL         1 TEMP              0 ****  ****    0 ROOT
