@<TRIPOS>MOLECULE
MOL
   20    22     1     0     0
SMALL
No Charge or Current Charge


@<TRIPOS>ATOM
      1 C1          -2.8220     1.1040    -0.9970 c3         1 MOL       0.000000
      2 C2          -2.0600    -0.2190    -1.0830 c3         1 MOL       0.000000
      3 C3          -1.7550    -0.8260     0.2990 c3         1 MOL       0.000000
      4 C4          -0.3700    -1.4600     0.4180 c3         1 MOL       0.000000
      5 N1           0.7070    -0.4900     0.2900 n3         1 MOL       0.000000
      6 N2           0.8460     0.4680     1.1830 n3         1 MOL       0.000000
      7 N3           1.8580     1.1700     0.8720 n3         1 MOL       0.000000
      8 C5           2.4090     0.6710    -0.2560 c3         1 MOL       0.000000
      9 C6           1.6740    -0.4060    -0.6370 c3         1 MOL       0.000000
     10 H1          -3.0400     1.4950    -1.9860 hc         1 MOL       0.000000
     11 H2          -2.2390     1.8470    -0.4620 hc         1 MOL       0.000000
     12 H3          -3.7670     0.9830    -0.4740 hc         1 MOL       0.000000
     13 H4          -2.6180    -0.9320    -1.6840 hc         1 MOL       0.000000
     14 H5          -1.1310    -0.0360    -1.6150 hc         1 MOL       0.000000
     15 H6          -1.8290    -0.0630     1.0650 hc         1 MOL       0.000000
     16 H7          -2.4900    -1.5860     0.5500 hc         1 MOL       0.000000
     17 H8          -0.2610    -1.9490     1.3780 h1         1 MOL       0.000000
     18 H9          -0.2130    -2.2040    -0.3530 h1         1 MOL       0.000000
     19 H10          3.2760     1.1070    -0.7030 h1         1 MOL       0.000000
     20 H11          1.7540    -1.0900    -1.4540 h1         1 MOL       0.000000
@<TRIPOS>BOND
     1     1     2 1   
     2     1    10 1   
     3     1    11 1   
     4     1    12 1   
     5     2     3 1   
     6     2    13 1   
     7     2    14 1   
     8     3     4 1   
     9     3    15 1   
    10     3    16 1   
    11     4     5 1   
    12     4    17 1   
    13     4    18 1   
    14     5     6 1   
    15     5     9 1   
    16     6     7 1   
    17     6     7 1   
    18     7     8 1   
    19     8     9 1   
    20     8     9 1   
    21     8    19 1   
    22     9    20 1   
@<TRIPOS>SUBSTRUCTURE
     1 MOL         1 TEMP              0 ****  ****    0 ROOT
