@<TRIPOS>MOLECULE								
MOL								
20	20	1	0	0				
SMALL								
No	Charge	or	Current	Charge				
@<TRIPOS>ATOM								
1	C1	-2.5260	1.0090	-0.9990	c3	1	MOL	-0.0574796410713743
2	C2	-2.0530	-0.4420	-1.0890	c3	1	MOL	0.0502276851611604
3	C3	-1.7070	-1.0570	0.2860	c3	1	MOL	0.029434866161889
4	C4	-0.2610	-1.5300	0.4190	c3	1	MOL	-0.1367489029942565
5	N1	0.7020	-0.4460	0.2950	na	1	MOL	0.3986932518358891
6	N2	0.7260	0.5240	1.1860	nc	1	MOL	-0.2502196049522864
7	N3	1.6470	1.3410	0.8710	nd	1	MOL	-0.3193359951280445
8	C5	2.2620	0.9010	-0.2470	cd	1	MOL	0.1155272094562996
9	C6	1.6560	-0.2530	-0.6290	cc	1	MOL	-0.3665531218424377
10	H1	-2.7570	1.4060	-1.9830	hc	1	MOL	0.0130890605865177
11	H2	-1.7660	1.6400	-0.5510	hc	1	MOL	0.0130890605865177
12	H3	-3.4230	1.0880	-0.3920	hc	1	MOL	0.0130890605865177
13	H4	-2.8210	-1.0390	-1.5710	hc	1	MOL	-0.0014480429946745
14	H5	-1.1870	-0.4860	-1.7440	hc	1	MOL	-0.0014480429946745
15	H6	-1.9020	-0.3440	1.0780	hc	1	MOL	0.013903235081947
16	H7	-2.3390	-1.9180	0.4850	hc	1	MOL	0.013903235081947
17	H8	-0.1060	-2.0020	1.3810	h1	1	MOL	0.0718422229084886
18	H9	-0.0190	-2.2520	-0.3500	h1	1	MOL	0.0718422229084886
19	H10	3.0760	1.4320	-0.6920	h4	1	MOL	0.1170117401835705
20	H11	1.8190	-0.9260	-1.4420	h4	1	MOL	0.2115805014385151
@<TRIPOS>BOND								
1	1	2	1					
2	1	10	1					
3	1	11	1					
4	1	12	1					
5	2	3	1					
6	2	13	1					
7	2	14	1					
8	3	4	1					
9	3	15	1					
10	3	16	1					
11	4	5	1					
12	4	17	1					
13	4	18	1					
14	5	6	1					
15	5	9	1					
16	6	7	2					
17	7	8	1					
18	8	9	2					
19	8	19	1					
20	9	20	1					
@<TRIPOS>SUBSTRUCTURE								
1	MOL	1	TEMP	0	****	****	0	ROOT
