@<TRIPOS>MOLECULE								
MOL								
20	20	1	0	0				
SMALL								
No	Charge	or	Current	Charge				
@<TRIPOS>ATOM								
1	C1	-2.0710	0.7720	-2.8850	c3	1	MOL	-0.0574796410713743
2	C2	-1.6700	0.5170	-1.4310	c3	1	MOL	0.0502276851611604
3	C3	-1.0950	-0.8960	-1.1980	c3	1	MOL	0.029434866161889
4	C4	0.4030	-0.9260	-0.8980	c3	1	MOL	-0.1367489029942565
5	N1	0.7400	-0.2910	0.3670	na	1	MOL	0.3986932518358891
6	N2	0.3370	-0.8230	1.5020	nc	1	MOL	-0.2502196049522864
7	N3	0.7530	-0.1000	2.4600	nd	1	MOL	-0.3193359951280445
8	C5	1.4580	0.9360	1.9560	cd	1	MOL	0.1155272094562996
9	C6	1.4560	0.8210	0.6020	cc	1	MOL	-0.3665531218424377
10	H1	-2.4560	1.7790	-3.0150	hc	1	MOL	0.0130890605865177
11	H2	-2.8430	0.0780	-3.2030	hc	1	MOL	0.0130890605865177
12	H3	-1.2240	0.6530	-3.5570	hc	1	MOL	0.0130890605865177
13	H4	-0.9530	1.2700	-1.1170	hc	1	MOL	-0.0014480429946745
14	H5	-2.5400	0.6620	-0.7990	hc	1	MOL	-0.0014480429946745
15	H6	-1.6040	-1.3850	-0.3770	hc	1	MOL	0.013903235081947
16	H7	-1.2590	-1.5160	-2.0750	hc	1	MOL	0.013903235081947
17	H8	0.7580	-1.9470	-0.8550	h1	1	MOL	0.0718422229084886
18	H9	0.9650	-0.4100	-1.6670	h1	1	MOL	0.0718422229084886
19	H10	1.9080	1.6740	2.5830	h4	1	MOL	0.1170117401835705
20	H11	1.8870	1.4080	-0.1790	h4	1	MOL	0.2115805014385151
@<TRIPOS>BOND								
1	1	2	1					
2	1	10	1					
3	1	11	1					
4	1	12	1					
5	2	3	1					
6	2	13	1					
7	2	14	1					
8	3	4	1					
9	3	15	1					
10	3	16	1					
11	4	5	1					
12	4	17	1					
13	4	18	1					
14	5	6	1					
15	5	9	1					
16	6	7	2					
17	7	8	1					
18	8	9	2					
19	8	19	1					
20	9	20	1					
@<TRIPOS>SUBSTRUCTURE								
1	MOL	1	TEMP	0	****	****	0	ROOT
