@<TRIPOS>MOLECULE								
MOL								
20	20	1	0	0				
SMALL								
No	Charge	or	Current	Charge				
@<TRIPOS>ATOM								
1	C1	-1.7140	0.5990	-2.4830	c3	1	MOL	-0.0574796410713743
2	C2	-2.0500	0.0060	-1.1130	c3	1	MOL	0.0502276851611604
3	C3	-1.3060	-1.2900	-0.7740	c3	1	MOL	0.029434866161889
4	C4	0.2190	-1.1880	-0.7420	c3	1	MOL	-0.1367489029942565
5	N1	0.7040	-0.2530	0.2620	na	1	MOL	0.3986932518358891
6	N2	0.5140	-0.4990	1.5420	nc	1	MOL	-0.2502196049522864
7	N3	1.0200	0.4500	2.2180	nd	1	MOL	-0.3193359951280445
8	C5	1.5610	1.3520	1.3720	cd	1	MOL	0.1155272094562996
9	C6	1.3610	0.9060	0.1040	cc	1	MOL	-0.3665531218424377
10	H1	-2.3400	1.4610	-2.6900	hc	1	MOL	0.0130890605865177
11	H2	-1.8760	-0.1250	-3.2770	hc	1	MOL	0.0130890605865177
12	H3	-0.6820	0.9310	-2.5450	hc	1	MOL	0.0130890605865177
13	H4	-1.8580	0.7460	-0.3410	hc	1	MOL	-0.0014480429946745
14	H5	-3.1150	-0.2030	-1.0710	hc	1	MOL	-0.0014480429946745
15	H6	-1.6420	-1.6550	0.1890	hc	1	MOL	0.013903235081947
16	H7	-1.5570	-2.0540	-1.5070	hc	1	MOL	0.013903235081947
17	H8	0.6470	-2.1570	-0.5210	h1	1	MOL	0.0718422229084886
18	H9	0.6170	-0.8630	-1.6930	h1	1	MOL	0.0718422229084886
19	H10	2.0460	2.2370	1.7220	h4	1	MOL	0.1170117401835705
20	H11	1.6250	1.2970	-0.8540	h4	1	MOL	0.2115805014385151
@<TRIPOS>BOND								
1	1	2	1					
2	1	10	1					
3	1	11	1					
4	1	12	1					
5	2	3	1					
6	2	13	1					
7	2	14	1					
8	3	4	1					
9	3	15	1					
10	3	16	1					
11	4	5	1					
12	4	17	1					
13	4	18	1					
14	5	6	1					
15	5	9	1					
16	6	7	2					
17	7	8	1					
18	8	9	2					
19	8	19	1					
20	9	20	1					
@<TRIPOS>SUBSTRUCTURE								
1	MOL	1	TEMP	0	****	****	0	ROOT
