@<TRIPOS>MOLECULE
MOL
   20    22     1     0     0
SMALL
No Charge or Current Charge


@<TRIPOS>ATOM
      1 C1          -3.1720     1.0980    -1.0500 c3         1 MOL       0.000000
      2 C2          -2.0150     0.1000    -1.0430 c3         1 MOL       0.000000
      3 C3          -1.7800    -0.5130     0.3390 c3         1 MOL       0.000000
      4 C4          -0.4960    -1.3320     0.4530 c3         1 MOL       0.000000
      5 N1           0.7070    -0.5290     0.2990 n3         1 MOL       0.000000
      6 N2           1.0300     0.3610     1.2150 n3         1 MOL       0.000000
      7 N3           2.1090     0.9320     0.8650 n3         1 MOL       0.000000
      8 C5           2.5260     0.4040    -0.3060 c3         1 MOL       0.000000
      9 C6           1.6240    -0.5410    -0.6820 c3         1 MOL       0.000000
     10 H1          -3.3290     1.5060    -2.0440 hc         1 MOL       0.000000
     11 H2          -2.9710     1.9270    -0.3790 hc         1 MOL       0.000000
     12 H3          -4.1010     0.6320    -0.7330 hc         1 MOL       0.000000
     13 H4          -2.2050    -0.6910    -1.7650 hc         1 MOL       0.000000
     14 H5          -1.1140     0.6100    -1.3710 hc         1 MOL       0.000000
     15 H6          -1.7480     0.2700     1.0900 hc         1 MOL       0.000000
     16 H7          -2.6110    -1.1640     0.6000 hc         1 MOL       0.000000
     17 H8          -0.4430    -1.8160     1.4190 h1         1 MOL       0.000000
     18 H9          -0.4570    -2.1030    -0.3070 h1         1 MOL       0.000000
     19 H10          3.4210     0.7310    -0.7890 h1         1 MOL       0.000000
     20 H11          1.5600    -1.1930    -1.5250 h1         1 MOL       0.000000
@<TRIPOS>BOND
     1     1     2 1   
     2     1    10 1   
     3     1    11 1   
     4     1    12 1   
     5     2     3 1   
     6     2    13 1   
     7     2    14 1   
     8     3     4 1   
     9     3    15 1   
    10     3    16 1   
    11     4     5 1   
    12     4    17 1   
    13     4    18 1   
    14     5     6 1   
    15     5     9 1   
    16     6     7 1   
    17     6     7 1   
    18     7     8 1   
    19     8     9 1   
    20     8     9 1   
    21     8    19 1   
    22     9    20 1   
@<TRIPOS>SUBSTRUCTURE
     1 MOL         1 TEMP              0 ****  ****    0 ROOT
