@<TRIPOS>MOLECULE
MOL
   20    22     1     0     0
SMALL
No Charge or Current Charge


@<TRIPOS>ATOM
      1 C1          -1.8220     0.4000    -2.6230 c3         1 MOL       0.000000
      2 C2          -2.0100     0.0170    -1.1540 c3         1 MOL       0.000000
      3 C3          -1.2920    -1.2720    -0.7410 c3         1 MOL       0.000000
      4 C4           0.2340    -1.1840    -0.6920 c3         1 MOL       0.000000
      5 N1           0.7160    -0.2310     0.2950 n3         1 MOL       0.000000
      6 N2           0.5740    -0.4820     1.5800 n3         1 MOL       0.000000
      7 N3           1.0600     0.4900     2.2400 n3         1 MOL       0.000000
      8 C5           1.5370     1.4120     1.3770 c3         1 MOL       0.000000
      9 C6           1.3210     0.9540     0.1160 c3         1 MOL       0.000000
     10 H1          -2.3940     1.2900    -2.8660 hc         1 MOL       0.000000
     11 H2          -2.1570    -0.3970    -3.2810 hc         1 MOL       0.000000
     12 H3          -0.7840     0.6100    -2.8640 hc         1 MOL       0.000000
     13 H4          -1.6920     0.8350    -0.5140 hc         1 MOL       0.000000
     14 H5          -3.0710    -0.1160    -0.9640 hc         1 MOL       0.000000
     15 H6          -1.6380    -1.5800     0.2400 hc         1 MOL       0.000000
     16 H7          -1.5500    -2.0720    -1.4310 hc         1 MOL       0.000000
     17 H8           0.6510    -2.1500    -0.4410 h1         1 MOL       0.000000
     18 H9           0.6470    -0.8850    -1.6460 h1         1 MOL       0.000000
     19 H10          1.9960     2.3170     1.7110 h1         1 MOL       0.000000
     20 H11          1.5390     1.3530    -0.8510 h1         1 MOL       0.000000
@<TRIPOS>BOND
     1     1     2 1   
     2     1    10 1   
     3     1    11 1   
     4     1    12 1   
     5     2     3 1   
     6     2    13 1   
     7     2    14 1   
     8     3     4 1   
     9     3    15 1   
    10     3    16 1   
    11     4     5 1   
    12     4    17 1   
    13     4    18 1   
    14     5     6 1   
    15     5     9 1   
    16     6     7 1   
    17     6     7 1   
    18     7     8 1   
    19     8     9 1   
    20     8     9 1   
    21     8    19 1   
    22     9    20 1   
@<TRIPOS>SUBSTRUCTURE
     1 MOL         1 TEMP              0 ****  ****    0 ROOT
