@<TRIPOS>MOLECULE								
MOL								
20	20	1	0	0				
SMALL								
No	Charge	or	Current	Charge				
@<TRIPOS>ATOM								
1	C1	-2.0680	0.7110	-2.9570	c3	1	MOL	-0.0574796410713743
2	C2	-1.5390	0.5260	-1.5340	c3	1	MOL	0.0502276851611604
3	C3	-0.9930	-0.8940	-1.2690	c3	1	MOL	0.029434866161889
4	C4	0.4800	-0.9400	-0.8680	c3	1	MOL	-0.1367489029942565
5	N1	0.7400	-0.2900	0.4080	na	1	MOL	0.3986932518358891
6	N2	0.2400	-0.7900	1.5180	nc	1	MOL	-0.2502196049522864
7	N3	0.6050	-0.0610	2.4930	nd	1	MOL	-0.3193359951280445
8	C5	1.3700	0.9490	2.0240	cd	1	MOL	0.1155272094562996
9	C6	1.4630	0.8080	0.6760	cc	1	MOL	-0.3665531218424377
10	H1	-2.4430	1.7190	-3.1080	hc	1	MOL	0.0130890605865177
11	H2	-2.8800	0.0210	-3.1670	hc	1	MOL	0.0130890605865177
12	H3	-1.2870	0.5340	-3.6930	hc	1	MOL	0.0130890605865177
13	H4	-0.7620	1.2630	-1.3500	hc	1	MOL	-0.0014480429946745
14	H5	-2.3290	0.7520	-0.8260	hc	1	MOL	-0.0014480429946745
15	H6	-1.5690	-1.3900	-0.4970	hc	1	MOL	0.013903235081947
16	H7	-1.0920	-1.5030	-2.1650	hc	1	MOL	0.013903235081947
17	H8	0.8170	-1.9650	-0.7880	h1	1	MOL	0.0718422229084886
18	H9	1.0960	-0.4420	-1.6050	h1	1	MOL	0.0718422229084886
19	H10	1.7910	1.6870	2.6700	h4	1	MOL	0.1170117401835705
20	H11	1.9650	1.3710	-0.0810	h4	1	MOL	0.2115805014385151
@<TRIPOS>BOND								
1	1	2	1					
2	1	10	1					
3	1	11	1					
4	1	12	1					
5	2	3	1					
6	2	13	1					
7	2	14	1					
8	3	4	1					
9	3	15	1					
10	3	16	1					
11	4	5	1					
12	4	17	1					
13	4	18	1					
14	5	6	1					
15	5	9	1					
16	6	7	2					
17	7	8	1					
18	8	9	2					
19	8	19	1					
20	9	20	1					
@<TRIPOS>SUBSTRUCTURE								
1	MOL	1	TEMP	0	****	****	0	ROOT
