@<TRIPOS>MOLECULE
MOL
   20    22     1     0     0
SMALL
No Charge or Current Charge


@<TRIPOS>ATOM
      1 C1          -1.6850     0.5410    -2.3600 c3         1 MOL       0.000000
      2 C2          -2.1100    -0.1430    -1.0590 c3         1 MOL       0.000000
      3 C3          -1.3010    -1.3900    -0.6820 c3         1 MOL       0.000000
      4 C4           0.2180    -1.2320    -0.7000 c3         1 MOL       0.000000
      5 N1           0.6980    -0.2280     0.2400 n3         1 MOL       0.000000
      6 N2           0.4330    -0.3420     1.5250 n3         1 MOL       0.000000
      7 N3           0.9790     0.6270     2.1390 n3         1 MOL       0.000000
      8 C5           1.6260     1.4060     1.2460 c3         1 MOL       0.000000
      9 C6           1.4510     0.8600     0.0150 c3         1 MOL       0.000000
     10 H1          -2.3740     1.3410    -2.6100 hc         1 MOL       0.000000
     11 H2          -1.6750    -0.1570    -3.1930 hc         1 MOL       0.000000
     12 H3          -0.6970     0.9830    -2.2830 hc         1 MOL       0.000000
     13 H4          -2.0560     0.5760    -0.2470 hc         1 MOL       0.000000
     14 H5          -3.1540    -0.4360    -1.1330 hc         1 MOL       0.000000
     15 H6          -1.6020    -1.7310     0.3010 hc         1 MOL       0.000000
     16 H7          -1.5330    -2.1930    -1.3780 hc         1 MOL       0.000000
     17 H8           0.6870    -2.1750    -0.4490 h1         1 MOL       0.000000
     18 H9           0.5740    -0.9390    -1.6780 h1         1 MOL       0.000000
     19 H10          2.1590     2.2830     1.5410 h1         1 MOL       0.000000
     20 H11          1.7880     1.1400    -0.9590 h1         1 MOL       0.000000
@<TRIPOS>BOND
     1     1     2 1   
     2     1    10 1   
     3     1    11 1   
     4     1    12 1   
     5     2     3 1   
     6     2    13 1   
     7     2    14 1   
     8     3     4 1   
     9     3    15 1   
    10     3    16 1   
    11     4     5 1   
    12     4    17 1   
    13     4    18 1   
    14     5     6 1   
    15     5     9 1   
    16     6     7 1   
    17     6     7 1   
    18     7     8 1   
    19     8     9 1   
    20     8     9 1   
    21     8    19 1   
    22     9    20 1   
@<TRIPOS>SUBSTRUCTURE
     1 MOL         1 TEMP              0 ****  ****    0 ROOT
