@<TRIPOS>MOLECULE
MOL
   20    22     1     0     0
SMALL
No Charge or Current Charge


@<TRIPOS>ATOM
      1 C1          -2.7150     1.1150    -0.8120 c3         1 MOL       0.000000
      2 C2          -2.1120    -0.2790    -0.9890 c3         1 MOL       0.000000
      3 C3          -1.7230    -0.9430     0.3490 c3         1 MOL       0.000000
      4 C4          -0.3060    -1.5120     0.3830 c3         1 MOL       0.000000
      5 N1           0.7160    -0.4860     0.2390 n3         1 MOL       0.000000
      6 N2           0.8570     0.4430     1.1620 n3         1 MOL       0.000000
      7 N3           1.8120     1.2090     0.8250 n3         1 MOL       0.000000
      8 C5           2.3200     0.7880    -0.3530 c3         1 MOL       0.000000
      9 C6           1.6210    -0.3120    -0.7370 c3         1 MOL       0.000000
     10 H1          -2.9830     1.5500    -1.7700 hc         1 MOL       0.000000
     11 H2          -2.0080     1.7810    -0.3260 hc         1 MOL       0.000000
     12 H3          -3.6130     1.0810    -0.2010 hc         1 MOL       0.000000
     13 H4          -2.8110    -0.9140    -1.5250 hc         1 MOL       0.000000
     14 H5          -1.2370    -0.1920    -1.6260 hc         1 MOL       0.000000
     15 H6          -1.8100    -0.2300     1.1600 hc         1 MOL       0.000000
     16 H7          -2.4050    -1.7570     0.5820 hc         1 MOL       0.000000
     17 H8          -0.1280    -2.0240     1.3190 h1         1 MOL       0.000000
     18 H9          -0.1510    -2.2220    -0.4200 h1         1 MOL       0.000000
     19 H10          3.1340     1.2870    -0.8300 h1         1 MOL       0.000000
     20 H11          1.6890    -0.9580    -1.5850 h1         1 MOL       0.000000
@<TRIPOS>BOND
     1     1     2 1   
     2     1    10 1   
     3     1    11 1   
     4     1    12 1   
     5     2     3 1   
     6     2    13 1   
     7     2    14 1   
     8     3     4 1   
     9     3    15 1   
    10     3    16 1   
    11     4     5 1   
    12     4    17 1   
    13     4    18 1   
    14     5     6 1   
    15     5     9 1   
    16     6     7 1   
    17     6     7 1   
    18     7     8 1   
    19     8     9 1   
    20     8     9 1   
    21     8    19 1   
    22     9    20 1   
@<TRIPOS>SUBSTRUCTURE
     1 MOL         1 TEMP              0 ****  ****    0 ROOT
