@<TRIPOS>MOLECULE
MOL
   20    22     1     0     0
SMALL
No Charge or Current Charge


@<TRIPOS>ATOM
      1 C1          -1.9420     0.7400    -1.2680 c3         1 MOL       0.000000
      2 C2          -2.3710    -0.6980    -0.9700 c3         1 MOL       0.000000
      3 C3          -1.4860    -1.4900     0.0050 c3         1 MOL       0.000000
      4 C4           0.0190    -1.4950    -0.2700 c3         1 MOL       0.000000
      5 N1           0.7040    -0.2710     0.1270 n3         1 MOL       0.000000
      6 N2           0.5370     0.2330     1.3310 n3         1 MOL       0.000000
      7 N3           1.2950     1.2460     1.4590 n3         1 MOL       0.000000
      8 C5           1.9930     1.4170     0.3160 c3         1 MOL       0.000000
      9 C6           1.6220     0.4370    -0.5490 c3         1 MOL       0.000000
     10 H1          -2.6940     1.2320    -1.8770 hc         1 MOL       0.000000
     11 H2          -1.0080     0.7800    -1.8170 hc         1 MOL       0.000000
     12 H3          -1.8170     1.3180    -0.3590 hc         1 MOL       0.000000
     13 H4          -3.3780    -0.6920    -0.5640 hc         1 MOL       0.000000
     14 H5          -2.4310    -1.2430    -1.9110 hc         1 MOL       0.000000
     15 H6          -1.6390    -1.1360     1.0170 hc         1 MOL       0.000000
     16 H7          -1.8100    -2.5270    -0.0100 hc         1 MOL       0.000000
     17 H8           0.4790    -2.3160     0.2650 h1         1 MOL       0.000000
     18 H9           0.2230    -1.6370    -1.3240 h1         1 MOL       0.000000
     19 H10          2.6950     2.2130     0.1950 h1         1 MOL       0.000000
     20 H11          1.9180     0.1980    -1.5470 h1         1 MOL       0.000000
@<TRIPOS>BOND
     1     1     2 1   
     2     1    10 1   
     3     1    11 1   
     4     1    12 1   
     5     2     3 1   
     6     2    13 1   
     7     2    14 1   
     8     3     4 1   
     9     3    15 1   
    10     3    16 1   
    11     4     5 1   
    12     4    17 1   
    13     4    18 1   
    14     5     6 1   
    15     5     9 1   
    16     6     7 1   
    17     6     7 1   
    18     7     8 1   
    19     8     9 1   
    20     8     9 1   
    21     8    19 1   
    22     9    20 1   
@<TRIPOS>SUBSTRUCTURE
     1 MOL         1 TEMP              0 ****  ****    0 ROOT
