@<TRIPOS>MOLECULE
MOL
   20    22     1     0     0
SMALL
No Charge or Current Charge


@<TRIPOS>ATOM
      1 C1          -2.0350     0.7940    -1.1580 c3         1 MOL       0.000000
      2 C2          -2.1770    -0.7270    -1.0510 c3         1 MOL       0.000000
      3 C3          -1.6020    -1.3580     0.2250 c3         1 MOL       0.000000
      4 C4          -0.0890    -1.5760     0.2530 c3         1 MOL       0.000000
      5 N1           0.6960    -0.3520     0.2650 n3         1 MOL       0.000000
      6 N2           0.5710     0.5100     1.2520 n3         1 MOL       0.000000
      7 N3           1.3650     1.4810     1.0480 n3         1 MOL       0.000000
      8 C5           2.0420     1.2600    -0.0990 c3         1 MOL       0.000000
      9 C6           1.6170     0.0760    -0.6120 c3         1 MOL       0.000000
     10 H1          -2.5480     1.1560    -2.0440 hc         1 MOL       0.000000
     11 H2          -1.0020     1.1120    -1.2230 hc         1 MOL       0.000000
     12 H3          -2.4750     1.2840    -0.2960 hc         1 MOL       0.000000
     13 H4          -3.2350    -0.9710    -1.0900 hc         1 MOL       0.000000
     14 H5          -1.7310    -1.2020    -1.9240 hc         1 MOL       0.000000
     15 H6          -1.8890    -0.7740     1.0940 hc         1 MOL       0.000000
     16 H7          -2.0430    -2.3430     0.3550 hc         1 MOL       0.000000
     17 H8           0.1800    -2.1450     1.1340 h1         1 MOL       0.000000
     18 H9           0.2290    -2.1400    -0.6150 h1         1 MOL       0.000000
     19 H10          2.7710     1.9490    -0.4680 h1         1 MOL       0.000000
     20 H11          1.8800    -0.4740    -1.4900 h1         1 MOL       0.000000
@<TRIPOS>BOND
     1     1     2 1   
     2     1    10 1   
     3     1    11 1   
     4     1    12 1   
     5     2     3 1   
     6     2    13 1   
     7     2    14 1   
     8     3     4 1   
     9     3    15 1   
    10     3    16 1   
    11     4     5 1   
    12     4    17 1   
    13     4    18 1   
    14     5     6 1   
    15     5     9 1   
    16     6     7 1   
    17     6     7 1   
    18     7     8 1   
    19     8     9 1   
    20     8     9 1   
    21     8    19 1   
    22     9    20 1   
@<TRIPOS>SUBSTRUCTURE
     1 MOL         1 TEMP              0 ****  ****    0 ROOT
