@<TRIPOS>MOLECULE								
MOL								
20	20	1	0	0				
SMALL								
No	Charge	or	Current	Charge				
@<TRIPOS>ATOM								
1	C1	-2.1440	0.9310	-0.9400	c3	1	MOL	-0.0574796410713743
2	C2	-2.1490	-0.5980	-1.0270	c3	1	MOL	0.0502276851611604
3	C3	-1.6280	-1.3150	0.2310	c3	1	MOL	0.029434866161889
4	C4	-0.1260	-1.5960	0.2550	c3	1	MOL	-0.1367489029942565
5	N1	0.7030	-0.4010	0.2370	na	1	MOL	0.3986932518358891
6	N2	0.7080	0.4170	1.2670	nc	1	MOL	-0.2502196049522864
7	N3	1.4910	1.3850	1.0130	nd	1	MOL	-0.3193359951280445
8	C5	2.0250	1.2080	-0.2140	cd	1	MOL	0.1155272094562996
9	C6	1.5210	0.0540	-0.7250	cc	1	MOL	-0.3665531218424377
10	H1	-2.5420	1.3640	-1.8520	hc	1	MOL	0.0130890605865177
11	H2	-1.1510	1.3330	-0.7860	hc	1	MOL	0.0130890605865177
12	H3	-2.7650	1.2680	-0.1160	hc	1	MOL	0.0130890605865177
13	H4	-3.1700	-0.9230	-1.2050	hc	1	MOL	-0.0014480429946745
14	H5	-1.5790	-0.9210	-1.8960	hc	1	MOL	-0.0014480429946745
15	H6	-1.8980	-0.7560	1.1210	hc	1	MOL	0.013903235081947
16	H7	-2.1110	-2.2850	0.3170	hc	1	MOL	0.013903235081947
17	H8	0.1310	-2.1550	1.1450	h1	1	MOL	0.0718422229084886
18	H9	0.1620	-2.1870	-0.6040	h1	1	MOL	0.0718422229084886
19	H10	2.7200	1.9020	-0.6350	h4	1	MOL	0.1170117401835705
20	H11	1.6700	-0.4590	-1.6500	h4	1	MOL	0.2115805014385151
@<TRIPOS>BOND								
1	1	2	1					
2	1	10	1					
3	1	11	1					
4	1	12	1					
5	2	3	1					
6	2	13	1					
7	2	14	1					
8	3	4	1					
9	3	15	1					
10	3	16	1					
11	4	5	1					
12	4	17	1					
13	4	18	1					
14	5	6	1					
15	5	9	1					
16	6	7	2					
17	7	8	1					
18	8	9	2					
19	8	19	1					
20	9	20	1					
@<TRIPOS>SUBSTRUCTURE								
1	MOL	1	TEMP	0	****	****	0	ROOT
