@<TRIPOS>MOLECULE								
MOL								
20	20	1	0	0				
SMALL								
No	Charge	or	Current	Charge				
@<TRIPOS>ATOM								
1	C1	-2.0290	0.8220	-1.1470	c3	1	MOL	-0.0574796410713743
2	C2	-2.1620	-0.7020	-1.0960	c3	1	MOL	0.0502276851611604
3	C3	-1.5950	-1.3750	0.1630	c3	1	MOL	0.029434866161889
4	C4	-0.0810	-1.5850	0.1990	c3	1	MOL	-0.1367489029942565
5	N1	0.6960	-0.3570	0.2590	na	1	MOL	0.3986932518358891
6	N2	0.5570	0.4690	1.2740	nc	1	MOL	-0.2502196049522864
7	N3	1.3480	1.4510	1.1120	nd	1	MOL	-0.3193359951280445
8	C5	2.0330	1.2760	-0.0390	cd	1	MOL	0.1155272094562996
9	C6	1.6210	0.1070	-0.5960	cc	1	MOL	-0.3665531218424377
10	H1	-2.5340	1.2130	-2.0250	hc	1	MOL	0.0130890605865177
11	H2	-0.9980	1.1500	-1.1870	hc	1	MOL	0.0130890605865177
12	H3	-2.4840	1.2780	-0.2730	hc	1	MOL	0.0130890605865177
13	H4	-3.2180	-0.9520	-1.1540	hc	1	MOL	-0.0014480429946745
14	H5	-1.7040	-1.1430	-1.9800	hc	1	MOL	-0.0014480429946745
15	H6	-1.8950	-0.8240	1.0490	hc	1	MOL	0.013903235081947
16	H7	-2.0310	-2.3670	0.2530	hc	1	MOL	0.013903235081947
17	H8	0.1820	-2.1820	1.0620	h1	1	MOL	0.0718422229084886
18	H9	0.2490	-2.1170	-0.6850	h1	1	MOL	0.0718422229084886
19	H10	2.7600	1.9820	-0.3780	h4	1	MOL	0.1170117401835705
20	H11	1.8940	-0.4100	-1.4890	h4	1	MOL	0.2115805014385151
@<TRIPOS>BOND								
1	1	2	1					
2	1	10	1					
3	1	11	1					
4	1	12	1					
5	2	3	1					
6	2	13	1					
7	2	14	1					
8	3	4	1					
9	3	15	1					
10	3	16	1					
11	4	5	1					
12	4	17	1					
13	4	18	1					
14	5	6	1					
15	5	9	1					
16	6	7	2					
17	7	8	1					
18	8	9	2					
19	8	19	1					
20	9	20	1					
@<TRIPOS>SUBSTRUCTURE								
1	MOL	1	TEMP	0	****	****	0	ROOT
