@<TRIPOS>MOLECULE								
MOL								
20	20	1	0	0				
SMALL								
No	Charge	or	Current	Charge				
@<TRIPOS>ATOM								
1	C1	-1.8470	0.6920	-1.4070	c3	1	MOL	-0.0574796410713743
2	C2	-2.3820	-0.6560	-0.9210	c3	1	MOL	0.0502276851611604
3	C3	-1.4250	-1.5520	-0.1040	c3	1	MOL	0.029434866161889
4	C4	0.0730	-1.4550	-0.3990	c3	1	MOL	-0.1367489029942565
5	N1	0.7040	-0.2460	0.1160	na	1	MOL	0.3986932518358891
6	N2	0.4850	0.1570	1.3500	nc	1	MOL	-0.2502196049522864
7	N3	1.2040	1.1800	1.5760	nd	1	MOL	-0.3193359951280445
8	C5	1.9290	1.4620	0.4720	cd	1	MOL	0.1155272094562996
9	C6	1.6160	0.5410	-0.4760	cc	1	MOL	-0.3665531218424377
10	H1	-2.6270	1.2210	-1.9450	hc	1	MOL	0.0130890605865177
11	H2	-1.0110	0.5740	-2.0880	hc	1	MOL	0.0130890605865177
12	H3	-1.5250	1.3240	-0.5870	hc	1	MOL	0.0130890605865177
13	H4	-3.2750	-0.4930	-0.3260	hc	1	MOL	-0.0014480429946745
14	H5	-2.7080	-1.2130	-1.7970	hc	1	MOL	-0.0014480429946745
15	H6	-1.5530	-1.3560	0.9530	hc	1	MOL	0.013903235081947
16	H7	-1.7070	-2.5890	-0.2560	hc	1	MOL	0.013903235081947
17	H8	0.5760	-2.3040	0.0470	h1	1	MOL	0.0718422229084886
18	H9	0.2730	-1.4810	-1.4630	h1	1	MOL	0.0718422229084886
19	H10	2.6060	2.2870	0.4340	h4	1	MOL	0.1170117401835705
20	H11	1.9460	0.3910	-1.4810	h4	1	MOL	0.2115805014385151
@<TRIPOS>BOND								
1	1	2	1					
2	1	10	1					
3	1	11	1					
4	1	12	1					
5	2	3	1					
6	2	13	1					
7	2	14	1					
8	3	4	1					
9	3	15	1					
10	3	16	1					
11	4	5	1					
12	4	17	1					
13	4	18	1					
14	5	6	1					
15	5	9	1					
16	6	7	2					
17	7	8	1					
18	8	9	2					
19	8	19	1					
20	9	20	1					
@<TRIPOS>SUBSTRUCTURE								
1	MOL	1	TEMP	0	****	****	0	ROOT
