@<TRIPOS>MOLECULE								
MOL								
20	20	1	0	0				
SMALL								
No	Charge	or	Current	Charge				
@<TRIPOS>ATOM								
1	C1	-1.8930	0.5520	-2.7210	c3	1	MOL	-0.0574796410713743
2	C2	-1.9440	0.1890	-1.2360	c3	1	MOL	0.0502276851611604
3	C3	-1.2590	-1.1420	-0.9000	c3	1	MOL	0.029434866161889
4	C4	0.2660	-1.0730	-0.7960	c3	1	MOL	-0.1367489029942565
5	N1	0.7220	-0.2460	0.3090	na	1	MOL	0.3986932518358891
6	N2	0.5350	-0.6390	1.5520	nc	1	MOL	-0.2502196049522864
7	N3	1.0140	0.2400	2.3340	nd	1	MOL	-0.3193359951280445
8	C5	1.5310	1.2470	1.5980	cd	1	MOL	0.1155272094562996
9	C6	1.3490	0.9420	0.2870	cc	1	MOL	-0.3665531218424377
10	H1	-2.3940	1.4970	-2.9070	hc	1	MOL	0.0130890605865177
11	H2	-2.3840	-0.2070	-3.3230	hc	1	MOL	0.0130890605865177
12	H3	-0.8730	0.6490	-3.0850	hc	1	MOL	0.0130890605865177
13	H4	-1.5140	0.9870	-0.6380	hc	1	MOL	-0.0014480429946745
14	H5	-2.9850	0.1210	-0.9370	hc	1	MOL	-0.0014480429946745
15	H6	-1.6320	-1.5180	0.0460	hc	1	MOL	0.013903235081947
16	H7	-1.5080	-1.8860	-1.6520	hc	1	MOL	0.013903235081947
17	H8	0.6730	-2.0640	-0.6480	h1	1	MOL	0.0718422229084886
18	H9	0.7080	-0.6660	-1.6960	h1	1	MOL	0.0718422229084886
19	H10	1.9900	2.1000	2.0490	h4	1	MOL	0.1170117401835705
20	H11	1.6030	1.4440	-0.6200	h4	1	MOL	0.2115805014385151
@<TRIPOS>BOND								
1	1	2	1					
2	1	10	1					
3	1	11	1					
4	1	12	1					
5	2	3	1					
6	2	13	1					
7	2	14	1					
8	3	4	1					
9	3	15	1					
10	3	16	1					
11	4	5	1					
12	4	17	1					
13	4	18	1					
14	5	6	1					
15	5	9	1					
16	6	7	2					
17	7	8	1					
18	8	9	2					
19	8	19	1					
20	9	20	1					
@<TRIPOS>SUBSTRUCTURE								
1	MOL	1	TEMP	0	****	****	0	ROOT
