@<TRIPOS>MOLECULE								
MOL								
20	20	1	0	0				
SMALL								
No	Charge	or	Current	Charge				
@<TRIPOS>ATOM								
1	C1	-2.1200	0.7850	-2.9350	c3	1	MOL	-0.0574796410713743
2	C2	-1.3080	0.6220	-1.6500	c3	1	MOL	0.0502276851611604
3	C3	-0.8160	-0.8200	-1.4300	c3	1	MOL	0.029434866161889
4	C4	0.6020	-0.9220	-0.8740	c3	1	MOL	-0.1367489029942565
5	N1	0.7420	-0.3160	0.4410	na	1	MOL	0.3986932518358891
6	N2	0.1260	-0.8410	1.4800	nc	1	MOL	-0.2502196049522864
7	N3	0.3950	-0.1430	2.5070	nd	1	MOL	-0.3193359951280445
8	C5	1.2120	0.8700	2.1490	cd	1	MOL	0.1155272094562996
9	C6	1.4430	0.7670	0.8140	cc	1	MOL	-0.3665531218424377
10	H1	-2.4760	1.8040	-3.0470	hc	1	MOL	0.0130890605865177
11	H2	-2.9860	0.1290	-2.9410	hc	1	MOL	0.0130890605865177
12	H3	-1.5180	0.5440	-3.8070	hc	1	MOL	0.0130890605865177
13	H4	-0.4540	1.2950	-1.7020	hc	1	MOL	-0.0014480429946745
14	H5	-1.8910	0.9480	-0.7950	hc	1	MOL	-0.0014480429946745
15	H6	-1.4920	-1.3610	-0.7780	hc	1	MOL	0.013903235081947
16	H7	-0.8080	-1.3520	-2.3780	hc	1	MOL	0.013903235081947
17	H8	0.9030	-1.9580	-0.7910	h1	1	MOL	0.0718422229084886
18	H9	1.3040	-0.4210	-1.5280	h1	1	MOL	0.0718422229084886
19	H10	1.5710	1.5850	2.8560	h4	1	MOL	0.1170117401835705
20	H11	2.0240	1.3450	0.1290	h4	1	MOL	0.2115805014385151
@<TRIPOS>BOND								
1	1	2	1					
2	1	10	1					
3	1	11	1					
4	1	12	1					
5	2	3	1					
6	2	13	1					
7	2	14	1					
8	3	4	1					
9	3	15	1					
10	3	16	1					
11	4	5	1					
12	4	17	1					
13	4	18	1					
14	5	6	1					
15	5	9	1					
16	6	7	2					
17	7	8	1					
18	8	9	2					
19	8	19	1					
20	9	20	1					
@<TRIPOS>SUBSTRUCTURE								
1	MOL	1	TEMP	0	****	****	0	ROOT
