@<TRIPOS>MOLECULE								
MOL								
20	20	1	0	0				
SMALL								
No	Charge	or	Current	Charge				
@<TRIPOS>ATOM								
1	C1	-2.2700	0.9490	-2.6830	c3	1	MOL	-0.0574796410713743
2	C2	-1.0360	0.7810	-1.7970	c3	1	MOL	0.0502276851611604
3	C3	-0.6610	-0.6880	-1.5890	c3	1	MOL	0.029434866161889
4	C4	0.6920	-0.8990	-0.9130	c3	1	MOL	-0.1367489029942565
5	N1	0.7450	-0.3660	0.4390	na	1	MOL	0.3986932518358891
6	N2	0.0620	-0.9450	1.4050	nc	1	MOL	-0.2502196049522864
7	N3	0.2500	-0.2960	2.4810	nd	1	MOL	-0.3193359951280445
8	C5	1.0850	0.7360	2.2320	cd	1	MOL	0.1155272094562996
9	C6	1.4090	0.7000	0.9130	cc	1	MOL	-0.3665531218424377
10	H1	-2.5260	1.9970	-2.8010	hc	1	MOL	0.0130890605865177
11	H2	-3.1320	0.4450	-2.2550	hc	1	MOL	0.0130890605865177
12	H3	-2.1010	0.5340	-3.6720	hc	1	MOL	0.0130890605865177
13	H4	-0.1990	1.3060	-2.2540	hc	1	MOL	-0.0014480429946745
14	H5	-1.2100	1.2540	-0.8350	hc	1	MOL	-0.0014480429946745
15	H6	-1.4280	-1.1920	-1.0100	hc	1	MOL	0.013903235081947
16	H7	-0.6140	-1.1900	-2.5530	hc	1	MOL	0.013903235081947
17	H8	0.9230	-1.9540	-0.8540	h1	1	MOL	0.0718422229084886
18	H9	1.4800	-0.4140	-1.4740	h1	1	MOL	0.0718422229084886
19	H10	1.3890	1.4170	2.9970	h4	1	MOL	0.1170117401835705
20	H11	2.0310	1.3150	0.2990	h4	1	MOL	0.2115805014385151
@<TRIPOS>BOND								
1	1	2	1					
2	1	10	1					
3	1	11	1					
4	1	12	1					
5	2	3	1					
6	2	13	1					
7	2	14	1					
8	3	4	1					
9	3	15	1					
10	3	16	1					
11	4	5	1					
12	4	17	1					
13	4	18	1					
14	5	6	1					
15	5	9	1					
16	6	7	2					
17	7	8	1					
18	8	9	2					
19	8	19	1					
20	9	20	1					
@<TRIPOS>SUBSTRUCTURE								
1	MOL	1	TEMP	0	****	****	0	ROOT
