@<TRIPOS>MOLECULE								
MOL								
20	20	1	0	0				
SMALL								
No	Charge	or	Current	Charge				
@<TRIPOS>ATOM								
1	C1	-2.7150	1.1150	-0.8120	c3	1	MOL	-0.0574796410713743
2	C2	-2.1120	-0.2790	-0.9890	c3	1	MOL	0.0502276851611604
3	C3	-1.7230	-0.9430	0.3490	c3	1	MOL	0.029434866161889
4	C4	-0.3060	-1.5120	0.3830	c3	1	MOL	-0.1367489029942565
5	N1	0.7160	-0.4860	0.2390	na	1	MOL	0.3986932518358891
6	N2	0.8570	0.4430	1.1620	nc	1	MOL	-0.2502196049522864
7	N3	1.8120	1.2090	0.8250	nd	1	MOL	-0.3193359951280445
8	C5	2.3200	0.7880	-0.3530	cd	1	MOL	0.1155272094562996
9	C6	1.6210	-0.3120	-0.7370	cc	1	MOL	-0.3665531218424377
10	H1	-2.9830	1.5500	-1.7700	hc	1	MOL	0.0130890605865177
11	H2	-2.0080	1.7810	-0.3260	hc	1	MOL	0.0130890605865177
12	H3	-3.6130	1.0810	-0.2010	hc	1	MOL	0.0130890605865177
13	H4	-2.8110	-0.9140	-1.5250	hc	1	MOL	-0.0014480429946745
14	H5	-1.2370	-0.1920	-1.6260	hc	1	MOL	-0.0014480429946745
15	H6	-1.8100	-0.2300	1.1600	hc	1	MOL	0.013903235081947
16	H7	-2.4050	-1.7570	0.5820	hc	1	MOL	0.013903235081947
17	H8	-0.1280	-2.0240	1.3190	h1	1	MOL	0.0718422229084886
18	H9	-0.1510	-2.2220	-0.4200	h1	1	MOL	0.0718422229084886
19	H10	3.1340	1.2870	-0.8300	h4	1	MOL	0.1170117401835705
20	H11	1.6890	-0.9580	-1.5850	h4	1	MOL	0.2115805014385151
@<TRIPOS>BOND								
1	1	2	1					
2	1	10	1					
3	1	11	1					
4	1	12	1					
5	2	3	1					
6	2	13	1					
7	2	14	1					
8	3	4	1					
9	3	15	1					
10	3	16	1					
11	4	5	1					
12	4	17	1					
13	4	18	1					
14	5	6	1					
15	5	9	1					
16	6	7	2					
17	7	8	1					
18	8	9	2					
19	8	19	1					
20	9	20	1					
@<TRIPOS>SUBSTRUCTURE								
1	MOL	1	TEMP	0	****	****	0	ROOT
