@<TRIPOS>MOLECULE
MOL
   20    22     1     0     0
SMALL
No Charge or Current Charge


@<TRIPOS>ATOM
      1 C1          -2.0940     0.8620    -1.0960 c3         1 MOL       0.000000
      2 C2          -2.0900    -0.6690    -1.0930 c3         1 MOL       0.000000
      3 C3          -1.6340    -1.3100     0.2290 c3         1 MOL       0.000000
      4 C4          -0.1340    -1.5790     0.3480 c3         1 MOL       0.000000
      5 N1           0.6910    -0.3830     0.2960 n3         1 MOL       0.000000
      6 N2           0.6390     0.5000     1.2710 n3         1 MOL       0.000000
      7 N3           1.4310     1.4560     0.9950 n3         1 MOL       0.000000
      8 C5           2.0280     1.2040    -0.1890 c3         1 MOL       0.000000
      9 C6           1.5570     0.0150    -0.6490 c3         1 MOL       0.000000
     10 H1          -2.4550     1.2380    -2.0480 hc         1 MOL       0.000000
     11 H2          -1.1090     1.2780    -0.9260 hc         1 MOL       0.000000
     12 H3          -2.7500     1.2430    -0.3190 hc         1 MOL       0.000000
     13 H4          -3.0990    -1.0100    -1.3050 hc         1 MOL       0.000000
     14 H5          -1.4750    -1.0400    -1.9120 hc         1 MOL       0.000000
     15 H6          -1.9520    -0.7030     1.0700 hc         1 MOL       0.000000
     16 H7          -2.1170    -2.2770     0.3450 hc         1 MOL       0.000000
     17 H8           0.0790    -2.0800     1.2830 h1         1 MOL       0.000000
     18 H9           0.2000    -2.2220    -0.4570 h1         1 MOL       0.000000
     19 H10          2.7410     1.8740    -0.6170 h1         1 MOL       0.000000
     20 H11          1.7570    -0.5560    -1.5290 h1         1 MOL       0.000000
@<TRIPOS>BOND
     1     1     2 1   
     2     1    10 1   
     3     1    11 1   
     4     1    12 1   
     5     2     3 1   
     6     2    13 1   
     7     2    14 1   
     8     3     4 1   
     9     3    15 1   
    10     3    16 1   
    11     4     5 1   
    12     4    17 1   
    13     4    18 1   
    14     5     6 1   
    15     5     9 1   
    16     6     7 1   
    17     6     7 1   
    18     7     8 1   
    19     8     9 1   
    20     8     9 1   
    21     8    19 1   
    22     9    20 1   
@<TRIPOS>SUBSTRUCTURE
     1 MOL         1 TEMP              0 ****  ****    0 ROOT
