@<TRIPOS>MOLECULE								
MOL								
20	20	1	0	0				
SMALL								
No	Charge	or	Current	Charge				
@<TRIPOS>ATOM								
1	C1	-1.9240	0.7260	-1.3260	c3	1	MOL	-0.0574796410713743
2	C2	-2.2900	-0.7390	-1.0780	c3	1	MOL	0.0502276851611604
3	C3	-1.5280	-1.4470	0.0490	c3	1	MOL	0.029434866161889
4	C4	-0.0070	-1.5350	-0.0940	c3	1	MOL	-0.1367489029942565
5	N1	0.6970	-0.2920	0.1950	na	1	MOL	0.3986932518358891
6	N2	0.4800	0.3560	1.3190	nc	1	MOL	-0.2502196049522864
7	N3	1.2560	1.3620	1.3650	nd	1	MOL	-0.3193359951280445
8	C5	2.0190	1.3790	0.2520	cd	1	MOL	0.1155272094562996
9	C6	1.6680	0.3100	-0.5090	cc	1	MOL	-0.3665531218424377
10	H1	-2.6070	1.1640	-2.0460	hc	1	MOL	0.0130890605865177
11	H2	-0.9210	0.8360	-1.7220	hc	1	MOL	0.0130890605865177
12	H3	-1.9820	1.3090	-0.4120	hc	1	MOL	0.0130890605865177
13	H4	-3.3480	-0.8010	-0.8400	hc	1	MOL	-0.0014480429946745
14	H5	-2.1580	-1.3000	-2.0020	hc	1	MOL	-0.0014480429946745
15	H6	-1.7540	-0.9830	1.0020	hc	1	MOL	0.013903235081947
16	H7	-1.8890	-2.4700	0.1110	hc	1	MOL	0.013903235081947
17	H8	0.3750	-2.2910	0.5810	h1	1	MOL	0.0718422229084886
18	H9	0.2710	-1.8230	-1.1000	h1	1	MOL	0.0718422229084886
19	H10	2.7480	2.1390	0.0770	h4	1	MOL	0.1170117401835705
20	H11	2.0100	-0.0550	-1.4530	h4	1	MOL	0.2115805014385151
@<TRIPOS>BOND								
1	1	2	1					
2	1	10	1					
3	1	11	1					
4	1	12	1					
5	2	3	1					
6	2	13	1					
7	2	14	1					
8	3	4	1					
9	3	15	1					
10	3	16	1					
11	4	5	1					
12	4	17	1					
13	4	18	1					
14	5	6	1					
15	5	9	1					
16	6	7	2					
17	7	8	1					
18	8	9	2					
19	8	19	1					
20	9	20	1					
@<TRIPOS>SUBSTRUCTURE								
1	MOL	1	TEMP	0	****	****	0	ROOT
