@<TRIPOS>MOLECULE
MOL
   20    22     1     0     0
SMALL
No Charge or Current Charge


@<TRIPOS>ATOM
      1 C1          -2.3030     0.9600    -2.5790 c3         1 MOL       0.000000
      2 C2          -0.9630     0.7930    -1.8650 c3         1 MOL       0.000000
      3 C3          -0.6070    -0.6760    -1.6290 c3         1 MOL       0.000000
      4 C4           0.7270    -0.8930    -0.9180 c3         1 MOL       0.000000
      5 N1           0.7440    -0.3670     0.4380 n3         1 MOL       0.000000
      6 N2           0.0400    -0.9540     1.3830 n3         1 MOL       0.000000
      7 N3           0.2040    -0.3150     2.4690 n3         1 MOL       0.000000
      8 C5           1.0370     0.7240     2.2460 c3         1 MOL       0.000000
      9 C6           1.3920     0.6990     0.9340 c3         1 MOL       0.000000
     10 H1          -2.5360     2.0090    -2.7310 hc         1 MOL       0.000000
     11 H2          -3.1110     0.5220    -2.0000 hc         1 MOL       0.000000
     12 H3          -2.2940     0.4780    -3.5530 hc         1 MOL       0.000000
     13 H4          -0.1780     1.2650    -2.4530 hc         1 MOL       0.000000
     14 H5          -0.9970     1.3160    -0.9140 hc         1 MOL       0.000000
     15 H6          -1.3880    -1.1600    -1.0530 hc         1 MOL       0.000000
     16 H7          -0.5520    -1.1950    -2.5840 hc         1 MOL       0.000000
     17 H8           0.9540    -1.9480    -0.8570 h1         1 MOL       0.000000
     18 H9           1.5340    -0.4090    -1.4540 h1         1 MOL       0.000000
     19 H10          1.3210     1.3990     3.0230 h1         1 MOL       0.000000
     20 H11          2.0250     1.3210     0.3400 h1         1 MOL       0.000000
@<TRIPOS>BOND
     1     1     2 1   
     2     1    10 1   
     3     1    11 1   
     4     1    12 1   
     5     2     3 1   
     6     2    13 1   
     7     2    14 1   
     8     3     4 1   
     9     3    15 1   
    10     3    16 1   
    11     4     5 1   
    12     4    17 1   
    13     4    18 1   
    14     5     6 1   
    15     5     9 1   
    16     6     7 1   
    17     6     7 1   
    18     7     8 1   
    19     8     9 1   
    20     8     9 1   
    21     8    19 1   
    22     9    20 1   
@<TRIPOS>SUBSTRUCTURE
     1 MOL         1 TEMP              0 ****  ****    0 ROOT
