@<TRIPOS>MOLECULE								
MOL								
20	20	1	0	0				
SMALL								
No	Charge	or	Current	Charge				
@<TRIPOS>ATOM								
1	C1	-2.2420	0.7850	-2.7560	c3	1	MOL	-0.0574796410713743
2	C2	-1.0220	0.6850	-1.8410	c3	1	MOL	0.0502276851611604
3	C3	-0.6090	-0.7640	-1.5750	c3	1	MOL	0.029434866161889
4	C4	0.7350	-0.9120	-0.8660	c3	1	MOL	-0.1367489029942565
5	N1	0.7460	-0.3280	0.4660	na	1	MOL	0.3986932518358891
6	N2	0.0540	-0.8860	1.4370	nc	1	MOL	-0.2502196049522864
7	N3	0.2090	-0.1980	2.4940	nd	1	MOL	-0.3193359951280445
8	C5	1.0210	0.8470	2.2230	cd	1	MOL	0.1155272094562996
9	C6	1.3750	0.7700	0.9130	cc	1	MOL	-0.3665531218424377
10	H1	-2.5310	1.8200	-2.9100	hc	1	MOL	0.0130890605865177
11	H2	-3.0950	0.2640	-2.3320	hc	1	MOL	0.0130890605865177
12	H3	-2.0390	0.3490	-3.7300	hc	1	MOL	0.0130890605865177
13	H4	-0.1920	1.2190	-2.2990	hc	1	MOL	-0.0014480429946745
14	H5	-1.2300	1.1840	-0.9000	hc	1	MOL	-0.0014480429946745
15	H6	-1.3720	-1.2710	-0.9940	hc	1	MOL	0.013903235081947
16	H7	-0.5280	-1.2970	-2.5210	hc	1	MOL	0.013903235081947
17	H8	0.9950	-1.9570	-0.7640	h1	1	MOL	0.0718422229084886
18	H9	1.5220	-0.4260	-1.4300	h1	1	MOL	0.0718422229084886
19	H10	1.2920	1.5620	2.9690	h4	1	MOL	0.1170117401835705
20	H11	1.9960	1.3760	0.2900	h4	1	MOL	0.2115805014385151
@<TRIPOS>BOND								
1	1	2	1					
2	1	10	1					
3	1	11	1					
4	1	12	1					
5	2	3	1					
6	2	13	1					
7	2	14	1					
8	3	4	1					
9	3	15	1					
10	3	16	1					
11	4	5	1					
12	4	17	1					
13	4	18	1					
14	5	6	1					
15	5	9	1					
16	6	7	2					
17	7	8	1					
18	8	9	2					
19	8	19	1					
20	9	20	1					
@<TRIPOS>SUBSTRUCTURE								
1	MOL	1	TEMP	0	****	****	0	ROOT
