@<TRIPOS>MOLECULE
MOL
   20    22     1     0     0
SMALL
No Charge or Current Charge


@<TRIPOS>ATOM
      1 C1          -2.5120     1.0570    -0.9830 c3         1 MOL       0.000000
      2 C2          -2.0550    -0.3970    -1.1020 c3         1 MOL       0.000000
      3 C3          -1.7180    -1.0440     0.2600 c3         1 MOL       0.000000
      4 C4          -0.2770    -1.5360     0.3840 c3         1 MOL       0.000000
      5 N1           0.6970    -0.4600     0.2870 n3         1 MOL       0.000000
      6 N2           0.7410     0.4790     1.2090 n3         1 MOL       0.000000
      7 N3           1.6690     1.2950     0.9140 n3         1 MOL       0.000000
      8 C5           2.2610     0.8930    -0.2310 c3         1 MOL       0.000000
      9 C6           1.6410    -0.2440    -0.6430 c3         1 MOL       0.000000
     10 H1          -2.7330     1.4780    -1.9590 hc         1 MOL       0.000000
     11 H2          -1.7460     1.6690    -0.5180 hc         1 MOL       0.000000
     12 H3          -3.4110     1.1340    -0.3770 hc         1 MOL       0.000000
     13 H4          -2.8300    -0.9760    -1.5970 hc         1 MOL       0.000000
     14 H5          -1.1900    -0.4390    -1.7580 hc         1 MOL       0.000000
     15 H6          -1.9050    -0.3450     1.0660 hc         1 MOL       0.000000
     16 H7          -2.3600    -1.9010     0.4420 hc         1 MOL       0.000000
     17 H8          -0.1280    -2.0310     1.3350 h1         1 MOL       0.000000
     18 H9          -0.0410    -2.2430    -0.4010 h1         1 MOL       0.000000
     19 H10          3.0730     1.4320    -0.6690 h1         1 MOL       0.000000
     20 H11          1.7870    -0.8900    -1.4810 h1         1 MOL       0.000000
@<TRIPOS>BOND
     1     1     2 1   
     2     1    10 1   
     3     1    11 1   
     4     1    12 1   
     5     2     3 1   
     6     2    13 1   
     7     2    14 1   
     8     3     4 1   
     9     3    15 1   
    10     3    16 1   
    11     4     5 1   
    12     4    17 1   
    13     4    18 1   
    14     5     6 1   
    15     5     9 1   
    16     6     7 1   
    17     6     7 1   
    18     7     8 1   
    19     8     9 1   
    20     8     9 1   
    21     8    19 1   
    22     9    20 1   
@<TRIPOS>SUBSTRUCTURE
     1 MOL         1 TEMP              0 ****  ****    0 ROOT
