@<TRIPOS>MOLECULE								
MOL								
20	20	1	0	0				
SMALL								
No	Charge	or	Current	Charge				
@<TRIPOS>ATOM								
1	C1	-1.7300	0.4510	-2.0550	c3	1	MOL	-0.0574796410713743
2	C2	-2.2830	-0.4640	-0.9610	c3	1	MOL	0.0502276851611604
3	C3	-1.3220	-1.5350	-0.3900	c3	1	MOL	0.029434866161889
4	C4	0.1780	-1.3160	-0.5760	c3	1	MOL	-0.1367489029942565
5	N1	0.7000	-0.1860	0.1860	na	1	MOL	0.3986932518358891
6	N2	0.3810	-0.0240	1.4530	nc	1	MOL	-0.2502196049522864
7	N3	1.0190	0.9760	1.9090	nd	1	MOL	-0.3193359951280445
8	C5	1.7910	1.4890	0.9280	cd	1	MOL	0.1155272094562996
9	C6	1.5960	0.7410	-0.1900	cc	1	MOL	-0.3665531218424377
10	H1	-2.5090	1.1230	-2.4010	hc	1	MOL	0.0130890605865177
11	H2	-1.3820	-0.1070	-2.9210	hc	1	MOL	0.0130890605865177
12	H3	-0.9130	1.0640	-1.6950	hc	1	MOL	0.0130890605865177
13	H4	-2.6180	0.1680	-0.1450	hc	1	MOL	-0.0014480429946745
14	H5	-3.1700	-0.9690	-1.3300	hc	1	MOL	-0.0014480429946745
15	H6	-1.5250	-1.6840	0.6620	hc	1	MOL	0.013903235081947
16	H7	-1.5270	-2.4850	-0.8770	hc	1	MOL	0.013903235081947
17	H8	0.7080	-2.2060	-0.2590	h1	1	MOL	0.0718422229084886
18	H9	0.4270	-1.1360	-1.6120	h1	1	MOL	0.0718422229084886
19	H10	2.4160	2.3400	1.0850	h4	1	MOL	0.1170117401835705
20	H11	1.9980	0.7900	-1.1780	h4	1	MOL	0.2115805014385151
@<TRIPOS>BOND								
1	1	2	1					
2	1	10	1					
3	1	11	1					
4	1	12	1					
5	2	3	1					
6	2	13	1					
7	2	14	1					
8	3	4	1					
9	3	15	1					
10	3	16	1					
11	4	5	1					
12	4	17	1					
13	4	18	1					
14	5	6	1					
15	5	9	1					
16	6	7	2					
17	7	8	1					
18	8	9	2					
19	8	19	1					
20	9	20	1					
@<TRIPOS>SUBSTRUCTURE								
1	MOL	1	TEMP	0	****	****	0	ROOT
