@<TRIPOS>MOLECULE								
MOL								
20	20	1	0	0				
SMALL								
No	Charge	or	Current	Charge				
@<TRIPOS>ATOM								
1	C1	-2.0540	0.8060	-1.0970	c3	1	MOL	-0.0574796410713743
2	C2	-2.2920	-0.7020	-1.0000	c3	1	MOL	0.0502276851611604
3	C3	-1.5420	-1.4320	0.1220	c3	1	MOL	0.029434866161889
4	C4	-0.0260	-1.5620	-0.0360	c3	1	MOL	-0.1367489029942565
5	N1	0.7110	-0.3230	0.1680	na	1	MOL	0.3986932518358891
6	N2	0.5680	0.3660	1.2790	nc	1	MOL	-0.2502196049522864
7	N3	1.3500	1.3680	1.2410	nd	1	MOL	-0.3193359951280445
8	C5	2.0380	1.3420	0.0800	cd	1	MOL	0.1155272094562996
9	C6	1.6350	0.2490	-0.6190	cc	1	MOL	-0.3665531218424377
10	H1	-2.7230	1.2430	-1.8320	hc	1	MOL	0.0130890605865177
11	H2	-1.0400	1.0460	-1.3940	hc	1	MOL	0.0130890605865177
12	H3	-2.2410	1.2940	-0.1460	hc	1	MOL	0.0130890605865177
13	H4	-3.3540	-0.8730	-0.8400	hc	1	MOL	-0.0014480429946745
14	H5	-2.0550	-1.1710	-1.9540	hc	1	MOL	-0.0014480429946745
15	H6	-1.7540	-0.9680	1.0790	hc	1	MOL	0.013903235081947
16	H7	-1.9240	-2.4480	0.1800	hc	1	MOL	0.013903235081947
17	H8	0.3490	-2.2870	0.6760	h1	1	MOL	0.0718422229084886
18	H9	0.2270	-1.9150	-1.0280	h1	1	MOL	0.0718422229084886
19	H10	2.7580	2.0920	-0.1680	h4	1	MOL	0.1170117401835705
20	H11	1.9140	-0.1500	-1.5700	h4	1	MOL	0.2115805014385151
@<TRIPOS>BOND								
1	1	2	1					
2	1	10	1					
3	1	11	1					
4	1	12	1					
5	2	3	1					
6	2	13	1					
7	2	14	1					
8	3	4	1					
9	3	15	1					
10	3	16	1					
11	4	5	1					
12	4	17	1					
13	4	18	1					
14	5	6	1					
15	5	9	1					
16	6	7	2					
17	7	8	1					
18	8	9	2					
19	8	19	1					
20	9	20	1					
@<TRIPOS>SUBSTRUCTURE								
1	MOL	1	TEMP	0	****	****	0	ROOT
