@<TRIPOS>MOLECULE
MOL
   20    22     1     0     0
SMALL
No Charge or Current Charge


@<TRIPOS>ATOM
      1 C1          -1.8890     0.7140    -1.3430 c3         1 MOL       0.000000
      2 C2          -2.3830    -0.6790    -0.9470 c3         1 MOL       0.000000
      3 C3          -1.4590    -1.5190    -0.0470 c3         1 MOL       0.000000
      4 C4           0.0420    -1.4720    -0.3400 c3         1 MOL       0.000000
      5 N1           0.7020    -0.2570     0.1200 n3         1 MOL       0.000000
      6 N2           0.5170     0.1890     1.3450 n3         1 MOL       0.000000
      7 N3           1.2560     1.2080     1.5240 n3         1 MOL       0.000000
      8 C5           1.9620     1.4410     0.3970 c3         1 MOL       0.000000
      9 C6           1.6150     0.4960    -0.5150 c3         1 MOL       0.000000
     10 H1          -2.6560     1.2270    -1.9140 hc         1 MOL       0.000000
     11 H2          -1.0030     0.6660    -1.9660 hc         1 MOL       0.000000
     12 H3          -1.6550     1.3230    -0.4770 hc         1 MOL       0.000000
     13 H4          -3.3410    -0.5900    -0.4440 hc         1 MOL       0.000000
     14 H5          -2.5770    -1.2370    -1.8610 hc         1 MOL       0.000000
     15 H6          -1.5960    -1.2350     0.9900 hc         1 MOL       0.000000
     16 H7          -1.7620    -2.5590    -0.1200 hc         1 MOL       0.000000
     17 H8           0.5260    -2.3110     0.1450 h1         1 MOL       0.000000
     18 H9           0.2410    -1.5510    -1.4010 h1         1 MOL       0.000000
     19 H10          2.6520     2.2530     0.3180 h1         1 MOL       0.000000
     20 H11          1.9220     0.3070    -1.5200 h1         1 MOL       0.000000
@<TRIPOS>BOND
     1     1     2 1   
     2     1    10 1   
     3     1    11 1   
     4     1    12 1   
     5     2     3 1   
     6     2    13 1   
     7     2    14 1   
     8     3     4 1   
     9     3    15 1   
    10     3    16 1   
    11     4     5 1   
    12     4    17 1   
    13     4    18 1   
    14     5     6 1   
    15     5     9 1   
    16     6     7 1   
    17     6     7 1   
    18     7     8 1   
    19     8     9 1   
    20     8     9 1   
    21     8    19 1   
    22     9    20 1   
@<TRIPOS>SUBSTRUCTURE
     1 MOL         1 TEMP              0 ****  ****    0 ROOT
