@<TRIPOS>MOLECULE								
MOL								
20	20	1	0	0				
SMALL								
No	Charge	or	Current	Charge				
@<TRIPOS>ATOM								
1	C1	-2.0070	0.7380	-1.3250	c3	1	MOL	-0.0574796410713743
2	C2	-2.2230	-0.7600	-1.1850	c3	1	MOL	0.0502276851611604
3	C3	-1.5930	-1.3760	0.0680	c3	1	MOL	0.029434866161889
4	C4	-0.0700	-1.5280	0.0180	c3	1	MOL	-0.1367489029942565
5	N1	0.6790	-0.3140	0.2460	na	1	MOL	0.3986932518358891
6	N2	0.5490	0.3650	1.3990	nc	1	MOL	-0.2502196049522864
7	N3	1.3780	1.3990	1.3480	nd	1	MOL	-0.3193359951280445
8	C5	2.0480	1.3440	0.1590	cd	1	MOL	0.1155272094562996
9	C6	1.6250	0.2500	-0.5560	cc	1	MOL	-0.3665531218424377
10	H1	-2.6280	1.1300	-2.1370	hc	1	MOL	0.0130890605865177
11	H2	-0.9700	0.9740	-1.5710	hc	1	MOL	0.0130890605865177
12	H3	-2.2800	1.2660	-0.4070	hc	1	MOL	0.0130890605865177
13	H4	-3.3050	-0.9400	-1.1410	hc	1	MOL	-0.0014480429946745
14	H5	-1.8580	-1.2710	-2.0830	hc	1	MOL	-0.0014480429946745
15	H6	-1.9030	-0.8140	0.9570	hc	1	MOL	0.013903235081947
16	H7	-2.0150	-2.3830	0.1770	hc	1	MOL	0.013903235081947
17	H8	0.2510	-2.2270	0.8000	h1	1	MOL	0.0718422229084886
18	H9	0.2450	-1.9490	-0.9430	h1	1	MOL	0.0718422229084886
19	H10	2.7890	2.0830	-0.1080	h4	1	MOL	0.1170117401835705
20	H11	1.9010	-0.1490	-1.5200	h4	1	MOL	0.2115805014385151
@<TRIPOS>BOND								
1	1	2	1					
2	1	10	1					
3	1	11	1					
4	1	12	1					
5	2	3	1					
6	2	13	1					
7	2	14	1					
8	3	4	1					
9	3	15	1					
10	3	16	1					
11	4	5	1					
12	4	17	1					
13	4	18	1					
14	5	6	1					
15	5	9	1					
16	6	7	2					
17	7	8	1					
18	8	9	2					
19	8	19	1					
20	9	20	1					
@<TRIPOS>SUBSTRUCTURE								
1	MOL	1	TEMP	0	****	****	0	ROOT
