@<TRIPOS>MOLECULE
MOL
   20    22     1     0     0
SMALL
No Charge or Current Charge


@<TRIPOS>ATOM
      1 C1          -1.7420     0.6030    -1.6070 c3         1 MOL       0.000000
      2 C2          -2.3530    -0.6410    -0.9580 c3         1 MOL       0.000000
      3 C3          -1.4220    -1.5520    -0.1190 c3         1 MOL       0.000000
      4 C4           0.0870    -1.4610    -0.3530 c3         1 MOL       0.000000
      5 N1           0.6960    -0.2420     0.1610 n3         1 MOL       0.000000
      6 N2           0.4240     0.1890     1.3750 n3         1 MOL       0.000000
      7 N3           1.1300     1.2190     1.6090 n3         1 MOL       0.000000
      8 C5           1.8980     1.4800     0.5290 c3         1 MOL       0.000000
      9 C6           1.6270     0.5370    -0.4100 c3         1 MOL       0.000000
     10 H1          -2.5040     1.1250    -2.1760 hc         1 MOL       0.000000
     11 H2          -0.9440     0.3500    -2.2990 hc         1 MOL       0.000000
     12 H3          -1.3450     1.2960    -0.8740 hc         1 MOL       0.000000
     13 H4          -3.1830    -0.3370    -0.3290 hc         1 MOL       0.000000
     14 H5          -2.7890    -1.2400    -1.7530 hc         1 MOL       0.000000
     15 H6          -1.5880    -1.3710     0.9360 hc         1 MOL       0.000000
     16 H7          -1.6970    -2.5870    -0.2930 hc         1 MOL       0.000000
     17 H8           0.5670    -2.3020     0.1340 h1         1 MOL       0.000000
     18 H9           0.3340    -1.5130    -1.4050 h1         1 MOL       0.000000
     19 H10          2.5730     2.3070     0.5010 h1         1 MOL       0.000000
     20 H11          1.9980     0.3670    -1.3970 h1         1 MOL       0.000000
@<TRIPOS>BOND
     1     1     2 1   
     2     1    10 1   
     3     1    11 1   
     4     1    12 1   
     5     2     3 1   
     6     2    13 1   
     7     2    14 1   
     8     3     4 1   
     9     3    15 1   
    10     3    16 1   
    11     4     5 1   
    12     4    17 1   
    13     4    18 1   
    14     5     6 1   
    15     5     9 1   
    16     6     7 1   
    17     6     7 1   
    18     7     8 1   
    19     8     9 1   
    20     8     9 1   
    21     8    19 1   
    22     9    20 1   
@<TRIPOS>SUBSTRUCTURE
     1 MOL         1 TEMP              0 ****  ****    0 ROOT
