@<TRIPOS>MOLECULE								
MOL								
20	20	1	0	0				
SMALL								
No	Charge	or	Current	Charge				
@<TRIPOS>ATOM								
1	C1	-1.7230	0.4500	-2.5080	c3	1	MOL	-0.0574796410713743
2	C2	-2.0520	-0.0670	-1.1060	c3	1	MOL	0.0502276851611604
3	C3	-1.3000	-1.3380	-0.6980	c3	1	MOL	0.029434866161889
4	C4	0.2240	-1.2280	-0.6740	c3	1	MOL	-0.1367489029942565
5	N1	0.7060	-0.2340	0.2740	na	1	MOL	0.3986932518358891
6	N2	0.5220	-0.4100	1.5660	nc	1	MOL	-0.2502196049522864
7	N3	1.0230	0.5800	2.1860	nd	1	MOL	-0.3193359951280445
8	C5	1.5540	1.4370	1.2890	cd	1	MOL	0.1155272094562996
9	C6	1.3580	0.9170	0.0490	cc	1	MOL	-0.3665531218424377
10	H1	-2.3570	1.2920	-2.7630	hc	1	MOL	0.0130890605865177
11	H2	-1.8780	-0.3190	-3.2600	hc	1	MOL	0.0130890605865177
12	H3	-0.6940	0.7890	-2.5890	hc	1	MOL	0.0130890605865177
13	H4	-1.8630	0.7150	-0.3770	hc	1	MOL	-0.0014480429946745
14	H5	-3.1160	-0.2800	-1.0500	hc	1	MOL	-0.0014480429946745
15	H6	-1.6330	-1.6520	0.2850	hc	1	MOL	0.013903235081947
16	H7	-1.5490	-2.1440	-1.3860	hc	1	MOL	0.013903235081947
17	H8	0.6570	-2.1800	-0.3990	h1	1	MOL	0.0718422229084886
18	H9	0.6190	-0.9550	-1.6430	h1	1	MOL	0.0718422229084886
19	H10	2.0330	2.3440	1.5870	h4	1	MOL	0.1170117401835705
20	H11	1.6180	1.2540	-0.9300	h4	1	MOL	0.2115805014385151
@<TRIPOS>BOND								
1	1	2	1					
2	1	10	1					
3	1	11	1					
4	1	12	1					
5	2	3	1					
6	2	13	1					
7	2	14	1					
8	3	4	1					
9	3	15	1					
10	3	16	1					
11	4	5	1					
12	4	17	1					
13	4	18	1					
14	5	6	1					
15	5	9	1					
16	6	7	2					
17	7	8	1					
18	8	9	2					
19	8	19	1					
20	9	20	1					
@<TRIPOS>SUBSTRUCTURE								
1	MOL	1	TEMP	0	****	****	0	ROOT
