@<TRIPOS>MOLECULE
MOL
   20    22     1     0     0
SMALL
No Charge or Current Charge


@<TRIPOS>ATOM
      1 C1          -2.6700     1.0850    -0.9820 c3         1 MOL       0.000000
      2 C2          -2.0540    -0.3100    -1.0940 c3         1 MOL       0.000000
      3 C3          -1.7380    -0.9430     0.2780 c3         1 MOL       0.000000
      4 C4          -0.3220    -1.5030     0.4040 c3         1 MOL       0.000000
      5 N1           0.7030    -0.4760     0.2890 n3         1 MOL       0.000000
      6 N2           0.7830     0.4840     1.1870 n3         1 MOL       0.000000
      7 N3           1.7540     1.2450     0.8820 n3         1 MOL       0.000000
      8 C5           2.3410     0.7800    -0.2410 c3         1 MOL       0.000000
      9 C6           1.6690    -0.3340    -0.6320 c3         1 MOL       0.000000
     10 H1          -2.8800     1.4990    -1.9630 hc         1 MOL       0.000000
     11 H2          -1.9970     1.7630    -0.4680 hc         1 MOL       0.000000
     12 H3          -3.6040     1.0590    -0.4270 hc         1 MOL       0.000000
     13 H4          -2.7190    -0.9610    -1.6540 hc         1 MOL       0.000000
     14 H5          -1.1440    -0.2340    -1.6830 hc         1 MOL       0.000000
     15 H6          -1.8720    -0.2120     1.0680 hc         1 MOL       0.000000
     16 H7          -2.4280    -1.7540     0.4910 hc         1 MOL       0.000000
     17 H8          -0.1940    -1.9910     1.3610 h1         1 MOL       0.000000
     18 H9          -0.1210    -2.2320    -0.3710 h1         1 MOL       0.000000
     19 H10          3.1850     1.2650    -0.6810 h1         1 MOL       0.000000
     20 H11          1.7930    -1.0100    -1.4500 h1         1 MOL       0.000000
@<TRIPOS>BOND
     1     1     2 1   
     2     1    10 1   
     3     1    11 1   
     4     1    12 1   
     5     2     3 1   
     6     2    13 1   
     7     2    14 1   
     8     3     4 1   
     9     3    15 1   
    10     3    16 1   
    11     4     5 1   
    12     4    17 1   
    13     4    18 1   
    14     5     6 1   
    15     5     9 1   
    16     6     7 1   
    17     6     7 1   
    18     7     8 1   
    19     8     9 1   
    20     8     9 1   
    21     8    19 1   
    22     9    20 1   
@<TRIPOS>SUBSTRUCTURE
     1 MOL         1 TEMP              0 ****  ****    0 ROOT
