@<TRIPOS>MOLECULE
MOL
   20    22     1     0     0
SMALL
No Charge or Current Charge


@<TRIPOS>ATOM
      1 C1          -1.7080     0.5610    -2.0480 c3         1 MOL       0.000000
      2 C2          -2.2780    -0.3980    -1.0000 c3         1 MOL       0.000000
      3 C3          -1.3330    -1.5020    -0.4700 c3         1 MOL       0.000000
      4 C4           0.1700    -1.2890    -0.6330 c3         1 MOL       0.000000
      5 N1           0.6970    -0.2010     0.1830 n3         1 MOL       0.000000
      6 N2           0.3680    -0.0940     1.4530 n3         1 MOL       0.000000
      7 N3           1.0110     0.8780     1.9600 n3         1 MOL       0.000000
      8 C5           1.7970     1.4280     1.0090 c3         1 MOL       0.000000
      9 C6           1.6040     0.7340    -0.1420 c3         1 MOL       0.000000
     10 H1          -2.4790     1.2520    -2.3720 hc         1 MOL       0.000000
     11 H2          -1.3520     0.0370    -2.9330 hc         1 MOL       0.000000
     12 H3          -0.8900     1.1510    -1.6510 hc         1 MOL       0.000000
     13 H4          -2.6150     0.2000    -0.1590 hc         1 MOL       0.000000
     14 H5          -3.1670    -0.8770    -1.4000 hc         1 MOL       0.000000
     15 H6          -1.5460    -1.6970     0.5720 hc         1 MOL       0.000000
     16 H7          -1.5420    -2.4280    -1.0010 hc         1 MOL       0.000000
     17 H8           0.6900    -2.1980    -0.3540 h1         1 MOL       0.000000
     18 H9           0.4300    -1.0650    -1.6580 h1         1 MOL       0.000000
     19 H10          2.4280     2.2650     1.2110 h1         1 MOL       0.000000
     20 H11          2.0150     0.8240    -1.1240 h1         1 MOL       0.000000
@<TRIPOS>BOND
     1     1     2 1   
     2     1    10 1   
     3     1    11 1   
     4     1    12 1   
     5     2     3 1   
     6     2    13 1   
     7     2    14 1   
     8     3     4 1   
     9     3    15 1   
    10     3    16 1   
    11     4     5 1   
    12     4    17 1   
    13     4    18 1   
    14     5     6 1   
    15     5     9 1   
    16     6     7 1   
    17     6     7 1   
    18     7     8 1   
    19     8     9 1   
    20     8     9 1   
    21     8    19 1   
    22     9    20 1   
@<TRIPOS>SUBSTRUCTURE
     1 MOL         1 TEMP              0 ****  ****    0 ROOT
