@<TRIPOS>MOLECULE
MOL
   20    22     1     0     0
SMALL
No Charge or Current Charge


@<TRIPOS>ATOM
      1 C1          -1.7380     0.5640    -1.6900 c3         1 MOL       0.000000
      2 C2          -2.3490    -0.6140    -0.9260 c3         1 MOL       0.000000
      3 C3          -1.3890    -1.5710    -0.1670 c3         1 MOL       0.000000
      4 C4           0.1160    -1.4390    -0.4040 c3         1 MOL       0.000000
      5 N1           0.7010    -0.2290     0.1590 n3         1 MOL       0.000000
      6 N2           0.4050     0.1590     1.3820 n3         1 MOL       0.000000
      7 N3           1.0920     1.1910     1.6590 n3         1 MOL       0.000000
      8 C5           1.8740     1.4950     0.6000 c3         1 MOL       0.000000
      9 C6           1.6310     0.5790    -0.3730 c3         1 MOL       0.000000
     10 H1          -2.5240     1.1080    -2.2040 hc         1 MOL       0.000000
     11 H2          -1.0300     0.2390    -2.4460 hc         1 MOL       0.000000
     12 H3          -1.2340     1.2610    -1.0320 hc         1 MOL       0.000000
     13 H4          -3.0690    -0.2220    -0.2160 hc         1 MOL       0.000000
     14 H5          -2.9240    -1.2030    -1.6350 hc         1 MOL       0.000000
     15 H6          -1.5530    -1.4830     0.8990 hc         1 MOL       0.000000
     16 H7          -1.6400    -2.5960    -0.4250 hc         1 MOL       0.000000
     17 H8           0.6150    -2.2890     0.0450 h1         1 MOL       0.000000
     18 H9           0.3580    -1.4400    -1.4580 h1         1 MOL       0.000000
     19 H10          2.5380     2.3320     0.6090 h1         1 MOL       0.000000
     20 H11          2.0190     0.4450    -1.3590 h1         1 MOL       0.000000
@<TRIPOS>BOND
     1     1     2 1   
     2     1    10 1   
     3     1    11 1   
     4     1    12 1   
     5     2     3 1   
     6     2    13 1   
     7     2    14 1   
     8     3     4 1   
     9     3    15 1   
    10     3    16 1   
    11     4     5 1   
    12     4    17 1   
    13     4    18 1   
    14     5     6 1   
    15     5     9 1   
    16     6     7 1   
    17     6     7 1   
    18     7     8 1   
    19     8     9 1   
    20     8     9 1   
    21     8    19 1   
    22     9    20 1   
@<TRIPOS>SUBSTRUCTURE
     1 MOL         1 TEMP              0 ****  ****    0 ROOT
