@<TRIPOS>MOLECULE								
MOL								
20	20	1	0	0				
SMALL								
No	Charge	or	Current	Charge				
@<TRIPOS>ATOM								
1	C1	-3.1820	1.0490	-1.0680	c3	1	MOL	-0.0574796410713743
2	C2	-2.0150	0.0620	-1.0470	c3	1	MOL	0.0502276851611604
3	C3	-1.7760	-0.5290	0.3430	c3	1	MOL	0.029434866161889
4	C4	-0.4810	-1.3310	0.4690	c3	1	MOL	-0.1367489029942565
5	N1	0.7120	-0.5150	0.3070	na	1	MOL	0.3986932518358891
6	N2	1.0230	0.3900	1.2110	nc	1	MOL	-0.2502196049522864
7	N3	2.1010	0.9630	0.8580	nd	1	MOL	-0.3193359951280445
8	C5	2.5210	0.4300	-0.3090	cd	1	MOL	0.1155272094562996
9	C6	1.6300	-0.5300	-0.6730	cc	1	MOL	-0.3665531218424377
10	H1	-3.3420	1.4430	-2.0670	hc	1	MOL	0.0130890605865177
11	H2	-2.9880	1.8870	-0.4070	hc	1	MOL	0.0130890605865177
12	H3	-4.1070	0.5790	-0.7460	hc	1	MOL	0.0130890605865177
13	H4	-2.1950	-0.7410	-1.7600	hc	1	MOL	-0.0014480429946745
14	H5	-1.1190	0.5770	-1.3800	hc	1	MOL	-0.0014480429946745
15	H6	-1.7530	0.2640	1.0830	hc	1	MOL	0.013903235081947
16	H7	-2.5990	-1.1870	0.6120	hc	1	MOL	0.013903235081947
17	H8	-0.4240	-1.8010	1.4420	h1	1	MOL	0.0718422229084886
18	H9	-0.4320	-2.1110	-0.2800	h1	1	MOL	0.0718422229084886
19	H10	3.4140	0.7600	-0.7940	h4	1	MOL	0.1170117401835705
20	H11	1.5760	-1.1950	-1.5070	h4	1	MOL	0.2115805014385151
@<TRIPOS>BOND								
1	1	2	1					
2	1	10	1					
3	1	11	1					
4	1	12	1					
5	2	3	1					
6	2	13	1					
7	2	14	1					
8	3	4	1					
9	3	15	1					
10	3	16	1					
11	4	5	1					
12	4	17	1					
13	4	18	1					
14	5	6	1					
15	5	9	1					
16	6	7	2					
17	7	8	1					
18	8	9	2					
19	8	19	1					
20	9	20	1					
@<TRIPOS>SUBSTRUCTURE								
1	MOL	1	TEMP	0	****	****	0	ROOT
