@<TRIPOS>MOLECULE
MOL
   20    22     1     0     0
SMALL
No Charge or Current Charge


@<TRIPOS>ATOM
      1 C1          -1.6910     0.4300    -2.2590 c3         1 MOL       0.000000
      2 C2          -2.1770    -0.2940    -1.0030 c3         1 MOL       0.000000
      3 C3          -1.3090    -1.4720    -0.5320 c3         1 MOL       0.000000
      4 C4           0.2030    -1.2850    -0.6200 c3         1 MOL       0.000000
      5 N1           0.6960    -0.2030     0.2230 n3         1 MOL       0.000000
      6 N2           0.3880    -0.1590     1.5020 n3         1 MOL       0.000000
      7 N3           0.9740     0.8370     2.0300 n3         1 MOL       0.000000
      8 C5           1.7020     1.4680     1.0840 c3         1 MOL       0.000000
      9 C6           1.5310     0.8010    -0.0870 c3         1 MOL       0.000000
     10 H1          -2.4200     1.1720    -2.5710 hc         1 MOL       0.000000
     11 H2          -1.5480    -0.2560    -3.0910 hc         1 MOL       0.000000
     12 H3          -0.7560     0.9520    -2.0890 hc         1 MOL       0.000000
     13 H4          -2.2560     0.4320    -0.1990 hc         1 MOL       0.000000
     14 H5          -3.1810    -0.6710    -1.1690 hc         1 MOL       0.000000
     15 H6          -1.5720    -1.7270     0.4860 hc         1 MOL       0.000000
     16 H7          -1.5310    -2.3480    -1.1400 hc         1 MOL       0.000000
     17 H8           0.7000    -2.1990    -0.3170 h1         1 MOL       0.000000
     18 H9           0.5160    -1.0610    -1.6300 h1         1 MOL       0.000000
     19 H10          2.2820     2.3380     1.3030 h1         1 MOL       0.000000
     20 H11          1.9170     0.9510    -1.0720 h1         1 MOL       0.000000
@<TRIPOS>BOND
     1     1     2 1   
     2     1    10 1   
     3     1    11 1   
     4     1    12 1   
     5     2     3 1   
     6     2    13 1   
     7     2    14 1   
     8     3     4 1   
     9     3    15 1   
    10     3    16 1   
    11     4     5 1   
    12     4    17 1   
    13     4    18 1   
    14     5     6 1   
    15     5     9 1   
    16     6     7 1   
    17     6     7 1   
    18     7     8 1   
    19     8     9 1   
    20     8     9 1   
    21     8    19 1   
    22     9    20 1   
@<TRIPOS>SUBSTRUCTURE
     1 MOL         1 TEMP              0 ****  ****    0 ROOT
