@<TRIPOS>MOLECULE
MOL
   20    22     1     0     0
SMALL
No Charge or Current Charge


@<TRIPOS>ATOM
      1 C1          -2.2320     0.9440    -2.7610 c3         1 MOL       0.000000
      2 C2          -1.1230     0.7630    -1.7250 c3         1 MOL       0.000000
      3 C3          -0.7170    -0.7040    -1.5480 c3         1 MOL       0.000000
      4 C4           0.6570    -0.9000    -0.9140 c3         1 MOL       0.000000
      5 N1           0.7460    -0.3620     0.4340 n3         1 MOL       0.000000
      6 N2           0.0830    -0.9320     1.4190 n3         1 MOL       0.000000
      7 N3           0.3020    -0.2810     2.4880 n3         1 MOL       0.000000
      8 C5           1.1340     0.7450     2.2140 c3         1 MOL       0.000000
      9 C6           1.4280     0.7010     0.8880 c3         1 MOL       0.000000
     10 H1          -2.5260     1.9850    -2.8400 hc         1 MOL       0.000000
     11 H2          -3.1160     0.3710    -2.4970 hc         1 MOL       0.000000
     12 H3          -1.9050     0.6140    -3.7430 hc         1 MOL       0.000000
     13 H4          -0.2570     1.3420    -2.0410 hc         1 MOL       0.000000
     14 H5          -1.4350     1.1750    -0.7710 hc         1 MOL       0.000000
     15 H6          -1.4600    -1.2340    -0.9620 hc         1 MOL       0.000000
     16 H7          -0.6810    -1.1890    -2.5220 hc         1 MOL       0.000000
     17 H8           0.9020    -1.9530    -0.8610 h1         1 MOL       0.000000
     18 H9           1.4220    -0.4080    -1.5010 h1         1 MOL       0.000000
     19 H10          1.4600     1.4270     2.9690 h1         1 MOL       0.000000
     20 H11          2.0390     1.3090     0.2570 h1         1 MOL       0.000000
@<TRIPOS>BOND
     1     1     2 1   
     2     1    10 1   
     3     1    11 1   
     4     1    12 1   
     5     2     3 1   
     6     2    13 1   
     7     2    14 1   
     8     3     4 1   
     9     3    15 1   
    10     3    16 1   
    11     4     5 1   
    12     4    17 1   
    13     4    18 1   
    14     5     6 1   
    15     5     9 1   
    16     6     7 1   
    17     6     7 1   
    18     7     8 1   
    19     8     9 1   
    20     8     9 1   
    21     8    19 1   
    22     9    20 1   
@<TRIPOS>SUBSTRUCTURE
     1 MOL         1 TEMP              0 ****  ****    0 ROOT
