@<TRIPOS>MOLECULE								
MOL								
20	20	1	0	0				
SMALL								
No	Charge	or	Current	Charge				
@<TRIPOS>ATOM								
1	C1	-1.7730	0.4510	-1.8170	c3	1	MOL	-0.0574796410713743
2	C2	-2.3460	-0.6270	-0.8920	c3	1	MOL	0.0502276851611604
3	C3	-1.3480	-1.5840	-0.1830	c3	1	MOL	0.029434866161889
4	C4	0.1480	-1.4010	-0.4380	c3	1	MOL	-0.1367489029942565
5	N1	0.7060	-0.1960	0.1620	na	1	MOL	0.3986932518358891
6	N2	0.4180	0.1370	1.4030	nc	1	MOL	-0.2502196049522864
7	N3	1.0830	1.1740	1.7120	nd	1	MOL	-0.3193359951280445
8	C5	1.8430	1.5380	0.6570	cd	1	MOL	0.1155272094562996
9	C6	1.6100	0.6550	-0.3480	cc	1	MOL	-0.3665531218424377
10	H1	-2.5860	1.0080	-2.2700	hc	1	MOL	0.0130890605865177
11	H2	-1.1870	0.0280	-2.6280	hc	1	MOL	0.0130890605865177
12	H3	-1.1520	1.1590	-1.2820	hc	1	MOL	0.0130890605865177
13	H4	-2.9400	-0.1300	-0.1330	hc	1	MOL	-0.0014480429946745
14	H5	-3.0440	-1.2280	-1.4660	hc	1	MOL	-0.0014480429946745
15	H6	-1.5050	-1.5500	0.8870	hc	1	MOL	0.013903235081947
16	H7	-1.5660	-2.6040	-0.4850	hc	1	MOL	0.013903235081947
17	H8	0.6790	-2.2520	-0.0290	h1	1	MOL	0.0718422229084886
18	H9	0.3710	-1.3550	-1.4950	h1	1	MOL	0.0718422229084886
19	H10	2.4870	2.3900	0.6900	h4	1	MOL	0.1170117401835705
20	H11	1.9890	0.5690	-1.3430	h4	1	MOL	0.2115805014385151
@<TRIPOS>BOND								
1	1	2	1					
2	1	10	1					
3	1	11	1					
4	1	12	1					
5	2	3	1					
6	2	13	1					
7	2	14	1					
8	3	4	1					
9	3	15	1					
10	3	16	1					
11	4	5	1					
12	4	17	1					
13	4	18	1					
14	5	6	1					
15	5	9	1					
16	6	7	2					
17	7	8	1					
18	8	9	2					
19	8	19	1					
20	9	20	1					
@<TRIPOS>SUBSTRUCTURE								
1	MOL	1	TEMP	0	****	****	0	ROOT
