@<TRIPOS>MOLECULE								
MOL								
20	20	1	0	0				
SMALL								
No	Charge	or	Current	Charge				
@<TRIPOS>ATOM								
1	C1	-2.0700	0.7250	-2.8120	c3	1	MOL	-0.0574796410713743
2	C2	-1.7950	0.4400	-1.3350	c3	1	MOL	0.0502276851611604
3	C3	-1.1880	-0.9540	-1.0870	c3	1	MOL	0.029434866161889
4	C4	0.3280	-0.9560	-0.8860	c3	1	MOL	-0.1367489029942565
5	N1	0.7380	-0.2780	0.3330	na	1	MOL	0.3986932518358891
6	N2	0.4160	-0.7770	1.5090	nc	1	MOL	-0.2502196049522864
7	N3	0.8920	-0.0240	2.4150	nd	1	MOL	-0.3193359951280445
8	C5	1.5480	1.0030	1.8330	cd	1	MOL	0.1155272094562996
9	C6	1.4570	0.8460	0.4870	cc	1	MOL	-0.3665531218424377
10	H1	-2.4720	1.7240	-2.9500	hc	1	MOL	0.0130890605865177
11	H2	-2.7890	0.0190	-3.2150	hc	1	MOL	0.0130890605865177
12	H3	-1.1650	0.6500	-3.4110	hc	1	MOL	0.0130890605865177
13	H4	-1.1490	1.2090	-0.9220	hc	1	MOL	-0.0014480429946745
14	H5	-2.7300	0.5210	-0.7900	hc	1	MOL	-0.0014480429946745
15	H6	-1.6310	-1.4080	-0.2090	hc	1	MOL	0.013903235081947
16	H7	-1.4100	-1.6130	-1.9220	hc	1	MOL	0.013903235081947
17	H8	0.6990	-1.9710	-0.8360	h1	1	MOL	0.0718422229084886
18	H9	0.8330	-0.4590	-1.7050	h1	1	MOL	0.0718422229084886
19	H10	2.0310	1.7630	2.4060	h4	1	MOL	0.1170117401835705
20	H11	1.8280	1.4130	-0.3390	h4	1	MOL	0.2115805014385151
@<TRIPOS>BOND								
1	1	2	1					
2	1	10	1					
3	1	11	1					
4	1	12	1					
5	2	3	1					
6	2	13	1					
7	2	14	1					
8	3	4	1					
9	3	15	1					
10	3	16	1					
11	4	5	1					
12	4	17	1					
13	4	18	1					
14	5	6	1					
15	5	9	1					
16	6	7	2					
17	7	8	1					
18	8	9	2					
19	8	19	1					
20	9	20	1					
@<TRIPOS>SUBSTRUCTURE								
1	MOL	1	TEMP	0	****	****	0	ROOT
