@<TRIPOS>MOLECULE								
MOL								
20	20	1	0	0				
SMALL								
No	Charge	or	Current	Charge				
@<TRIPOS>ATOM								
1	C1	-2.1870	0.9470	-1.0610	c3	1	MOL	-0.0574796410713743
2	C2	-2.0460	-0.5750	-1.1270	c3	1	MOL	0.0502276851611604
3	C3	-1.6720	-1.2270	0.2190	c3	1	MOL	0.029434866161889
4	C4	-0.1920	-1.5750	0.3710	c3	1	MOL	-0.1367489029942565
5	N1	0.6850	-0.4170	0.3040	na	1	MOL	0.3986932518358891
6	N2	0.6870	0.4680	1.2790	nc	1	MOL	-0.2502196049522864
7	N3	1.5100	1.3910	0.9880	nd	1	MOL	-0.3193359951280445
8	C5	2.0740	1.1170	-0.2080	cd	1	MOL	0.1155272094562996
9	C6	1.5470	-0.0520	-0.6580	cc	1	MOL	-0.3665531218424377
10	H1	-2.4420	1.3530	-2.0360	hc	1	MOL	0.0130890605865177
11	H2	-1.2730	1.4240	-0.7290	hc	1	MOL	0.0130890605865177
12	H3	-2.9760	1.2280	-0.3700	hc	1	MOL	0.0130890605865177
13	H4	-2.9890	-0.9920	-1.4680	hc	1	MOL	-0.0014480429946745
14	H5	-1.3140	-0.8440	-1.8860	hc	1	MOL	-0.0014480429946745
15	H6	-1.9690	-0.5890	1.0440	hc	1	MOL	0.013903235081947
16	H7	-2.2140	-2.1610	0.3400	hc	1	MOL	0.013903235081947
17	H8	-0.0160	-2.0610	1.3220	h1	1	MOL	0.0718422229084886
18	H9	0.1230	-2.2520	-0.4130	h1	1	MOL	0.0718422229084886
19	H10	2.8030	1.7590	-0.6510	h4	1	MOL	0.1170117401835705
20	H11	1.7080	-0.6300	-1.5420	h4	1	MOL	0.2115805014385151
@<TRIPOS>BOND								
1	1	2	1					
2	1	10	1					
3	1	11	1					
4	1	12	1					
5	2	3	1					
6	2	13	1					
7	2	14	1					
8	3	4	1					
9	3	15	1					
10	3	16	1					
11	4	5	1					
12	4	17	1					
13	4	18	1					
14	5	6	1					
15	5	9	1					
16	6	7	2					
17	7	8	1					
18	8	9	2					
19	8	19	1					
20	9	20	1					
@<TRIPOS>SUBSTRUCTURE								
1	MOL	1	TEMP	0	****	****	0	ROOT
