@<TRIPOS>MOLECULE								
MOL								
20	20	1	0	0				
SMALL								
No	Charge	or	Current	Charge				
@<TRIPOS>ATOM								
1	C1	-3.2220	1.1250	-0.8560	c3	1	MOL	-0.0574796410713743
2	C2	-2.0730	0.1200	-0.9270	c3	1	MOL	0.0502276851611604
3	C3	-1.7600	-0.5080	0.4330	c3	1	MOL	0.029434866161889
4	C4	-0.4760	-1.3350	0.4630	c3	1	MOL	-0.1367489029942565
5	N1	0.7220	-0.5360	0.2530	na	1	MOL	0.3986932518358891
6	N2	1.1150	0.3200	1.1730	nc	1	MOL	-0.2502196049522864
7	N3	2.1720	0.8950	0.7670	nd	1	MOL	-0.3193359951280445
8	C5	2.4960	0.4120	-0.4520	cd	1	MOL	0.1155272094562996
9	C6	1.5640	-0.5160	-0.7930	cc	1	MOL	-0.3665531218424377
10	H1	-3.4360	1.5430	-1.8350	hc	1	MOL	0.0130890605865177
11	H2	-2.9750	1.9470	-0.1910	hc	1	MOL	0.0130890605865177
12	H3	-4.1320	0.6610	-0.4870	hc	1	MOL	0.0130890605865177
13	H4	-2.3120	-0.6640	-1.6430	hc	1	MOL	-0.0014480429946745
14	H5	-1.1900	0.6270	-1.3050	hc	1	MOL	-0.0014480429946745
15	H6	-1.6800	0.2670	1.1880	hc	1	MOL	0.013903235081947
16	H7	-2.5780	-1.1580	0.7350	hc	1	MOL	0.013903235081947
17	H8	-0.3710	-1.8300	1.4190	h1	1	MOL	0.0718422229084886
18	H9	-0.4850	-2.0960	-0.3070	h1	1	MOL	0.0718422229084886
19	H10	3.3560	0.7520	-0.9860	h4	1	MOL	0.1170117401835705
20	H11	1.4350	-1.1370	-1.6520	h4	1	MOL	0.2115805014385151
@<TRIPOS>BOND								
1	1	2	1					
2	1	10	1					
3	1	11	1					
4	1	12	1					
5	2	3	1					
6	2	13	1					
7	2	14	1					
8	3	4	1					
9	3	15	1					
10	3	16	1					
11	4	5	1					
12	4	17	1					
13	4	18	1					
14	5	6	1					
15	5	9	1					
16	6	7	2					
17	7	8	1					
18	8	9	2					
19	8	19	1					
20	9	20	1					
@<TRIPOS>SUBSTRUCTURE								
1	MOL	1	TEMP	0	****	****	0	ROOT
