@<TRIPOS>MOLECULE								
MOL								
20	20	1	0	0				
SMALL								
No	Charge	or	Current	Charge				
@<TRIPOS>ATOM								
1	C1	-2.0920	0.8870	-1.0880	c3	1	MOL	-0.0574796410713743
2	C2	-2.0920	-0.6440	-1.1110	c3	1	MOL	0.0502276851611604
3	C3	-1.6380	-1.3070	0.2010	c3	1	MOL	0.029434866161889
4	C4	-0.1400	-1.5840	0.3150	c3	1	MOL	-0.1367489029942565
5	N1	0.6890	-0.3900	0.2890	na	1	MOL	0.3986932518358891
6	N2	0.6410	0.4710	1.2840	nc	1	MOL	-0.2502196049522864
7	N3	1.4360	1.4290	1.0300	nd	1	MOL	-0.3193359951280445
8	C5	2.0330	1.2020	-0.1600	cd	1	MOL	0.1155272094562996
9	C6	1.5570	0.0260	-0.6460	cc	1	MOL	-0.3665531218424377
10	H1	-2.4400	1.2810	-2.0380	hc	1	MOL	0.0130890605865177
11	H2	-1.1070	1.2970	-0.8990	hc	1	MOL	0.0130890605865177
12	H3	-2.7560	1.2580	-0.3130	hc	1	MOL	0.0130890605865177
13	H4	-3.1030	-0.9780	-1.3290	hc	1	MOL	-0.0014480429946745
14	H5	-1.4780	-1.0020	-1.9350	hc	1	MOL	-0.0014480429946745
15	H6	-1.9540	-0.7120	1.0510	hc	1	MOL	0.013903235081947
16	H7	-2.1250	-2.2740	0.3020	hc	1	MOL	0.013903235081947
17	H8	0.0710	-2.1060	1.2390	h1	1	MOL	0.0718422229084886
18	H9	0.1930	-2.2110	-0.5030	h1	1	MOL	0.0718422229084886
19	H10	2.7480	1.8790	-0.5730	h4	1	MOL	0.1170117401835705
20	H11	1.7540	-0.5250	-1.5400	h4	1	MOL	0.2115805014385151
@<TRIPOS>BOND								
1	1	2	1					
2	1	10	1					
3	1	11	1					
4	1	12	1					
5	2	3	1					
6	2	13	1					
7	2	14	1					
8	3	4	1					
9	3	15	1					
10	3	16	1					
11	4	5	1					
12	4	17	1					
13	4	18	1					
14	5	6	1					
15	5	9	1					
16	6	7	2					
17	7	8	1					
18	8	9	2					
19	8	19	1					
20	9	20	1					
@<TRIPOS>SUBSTRUCTURE								
1	MOL	1	TEMP	0	****	****	0	ROOT
