@<TRIPOS>MOLECULE
MOL
   20    22     1     0     0
SMALL
No Charge or Current Charge


@<TRIPOS>ATOM
      1 C1          -2.9570     1.1120    -1.0110 c3         1 MOL       0.000000
      2 C2          -2.0540    -0.1190    -1.0750 c3         1 MOL       0.000000
      3 C3          -1.7670    -0.7200     0.3100 c3         1 MOL       0.000000
      4 C4          -0.4130    -1.4190     0.4260 c3         1 MOL       0.000000
      5 N1           0.7100    -0.5030     0.2920 n3         1 MOL       0.000000
      6 N2           0.9080     0.4380     1.1920 n3         1 MOL       0.000000
      7 N3           1.9480     1.0930     0.8710 n3         1 MOL       0.000000
      8 C5           2.4610     0.5770    -0.2660 c3         1 MOL       0.000000
      9 C6           1.6670    -0.4580    -0.6480 c3         1 MOL       0.000000
     10 H1          -3.1650     1.4960    -2.0040 hc         1 MOL       0.000000
     11 H2          -2.4850     1.9030    -0.4380 hc         1 MOL       0.000000
     12 H3          -3.9080     0.8810    -0.5390 hc         1 MOL       0.000000
     13 H4          -2.4980    -0.8760    -1.7180 hc         1 MOL       0.000000
     14 H5          -1.1190     0.1710    -1.5470 hc         1 MOL       0.000000
     15 H6          -1.8000     0.0580     1.0650 hc         1 MOL       0.000000
     16 H7          -2.5370    -1.4400     0.5730 hc         1 MOL       0.000000
     17 H8          -0.3250    -1.9080     1.3870 h1         1 MOL       0.000000
     18 H9          -0.2960    -2.1720    -0.3430 h1         1 MOL       0.000000
     19 H10          3.3430     0.9720    -0.7210 h1         1 MOL       0.000000
     20 H11          1.7020    -1.1370    -1.4720 h1         1 MOL       0.000000
@<TRIPOS>BOND
     1     1     2 1   
     2     1    10 1   
     3     1    11 1   
     4     1    12 1   
     5     2     3 1   
     6     2    13 1   
     7     2    14 1   
     8     3     4 1   
     9     3    15 1   
    10     3    16 1   
    11     4     5 1   
    12     4    17 1   
    13     4    18 1   
    14     5     6 1   
    15     5     9 1   
    16     6     7 1   
    17     6     7 1   
    18     7     8 1   
    19     8     9 1   
    20     8     9 1   
    21     8    19 1   
    22     9    20 1   
@<TRIPOS>SUBSTRUCTURE
     1 MOL         1 TEMP              0 ****  ****    0 ROOT
