@<TRIPOS>MOLECULE
MOL
   20    22     1     0     0
SMALL
No Charge or Current Charge


@<TRIPOS>ATOM
      1 C1          -2.1750     0.9480    -2.8320 c3         1 MOL       0.000000
      2 C2          -1.2080     0.7430    -1.6660 c3         1 MOL       0.000000
      3 C3          -0.7750    -0.7230    -1.5050 c3         1 MOL       0.000000
      4 C4           0.6200    -0.9010    -0.9140 c3         1 MOL       0.000000
      5 N1           0.7410    -0.3560     0.4300 n3         1 MOL       0.000000
      6 N2           0.0790    -0.9050     1.4270 n3         1 MOL       0.000000
      7 N3           0.3390    -0.2600     2.4910 n3         1 MOL       0.000000
      8 C5           1.1960     0.7420     2.1990 c3         1 MOL       0.000000
      9 C6           1.4630     0.6870     0.8680 c3         1 MOL       0.000000
     10 H1          -2.4890     1.9850    -2.9020 hc         1 MOL       0.000000
     11 H2          -3.0680     0.3400    -2.7160 hc         1 MOL       0.000000
     12 H3          -1.7100     0.6760    -3.7750 hc         1 MOL       0.000000
     13 H4          -0.3320     1.3660    -1.8330 hc         1 MOL       0.000000
     14 H5          -1.6580     1.0960    -0.7440 hc         1 MOL       0.000000
     15 H6          -1.4910    -1.2650    -0.8980 hc         1 MOL       0.000000
     16 H7          -0.7610    -1.2080    -2.4780 hc         1 MOL       0.000000
     17 H8           0.8810    -1.9500    -0.8680 h1         1 MOL       0.000000
     18 H9           1.3600    -0.3990    -1.5230 h1         1 MOL       0.000000
     19 H10          1.5550     1.4160     2.9460 h1         1 MOL       0.000000
     20 H11          2.0800     1.2760     0.2240 h1         1 MOL       0.000000
@<TRIPOS>BOND
     1     1     2 1   
     2     1    10 1   
     3     1    11 1   
     4     1    12 1   
     5     2     3 1   
     6     2    13 1   
     7     2    14 1   
     8     3     4 1   
     9     3    15 1   
    10     3    16 1   
    11     4     5 1   
    12     4    17 1   
    13     4    18 1   
    14     5     6 1   
    15     5     9 1   
    16     6     7 1   
    17     6     7 1   
    18     7     8 1   
    19     8     9 1   
    20     8     9 1   
    21     8    19 1   
    22     9    20 1   
@<TRIPOS>SUBSTRUCTURE
     1 MOL         1 TEMP              0 ****  ****    0 ROOT
