@<TRIPOS>MOLECULE
MOL
   20    22     1     0     0
SMALL
No Charge or Current Charge


@<TRIPOS>ATOM
      1 C1          -1.7820     0.4800    -2.4730 c3         1 MOL       0.000000
      2 C2          -2.0770    -0.0500    -1.0680 c3         1 MOL       0.000000
      3 C3          -1.3150    -1.3240    -0.6890 c3         1 MOL       0.000000
      4 C4           0.2100    -1.2140    -0.6970 c3         1 MOL       0.000000
      5 N1           0.7140    -0.2370     0.2560 n3         1 MOL       0.000000
      6 N2           0.5990    -0.4570     1.5500 n3         1 MOL       0.000000
      7 N3           1.0970     0.5300     2.1760 n3         1 MOL       0.000000
      8 C5           1.5580     1.4300     1.2820 c3         1 MOL       0.000000
      9 C6           1.3150     0.9430     0.0370 c3         1 MOL       0.000000
     10 H1          -2.4250     1.3230    -2.7050 hc         1 MOL       0.000000
     11 H2          -1.9530    -0.2840    -3.2270 hc         1 MOL       0.000000
     12 H3          -0.7560     0.8230    -2.5770 hc         1 MOL       0.000000
     13 H4          -1.8700     0.7270    -0.3370 hc         1 MOL       0.000000
     14 H5          -3.1390    -0.2630    -0.9880 hc         1 MOL       0.000000
     15 H6          -1.6260    -1.6470     0.2980 hc         1 MOL       0.000000
     16 H7          -1.5780    -2.1230    -1.3790 hc         1 MOL       0.000000
     17 H8           0.6480    -2.1700    -0.4430 h1         1 MOL       0.000000
     18 H9           0.5850    -0.9280    -1.6700 h1         1 MOL       0.000000
     19 H10          2.0230     2.3420     1.5860 h1         1 MOL       0.000000
     20 H11          1.5150     1.3190    -0.9430 h1         1 MOL       0.000000
@<TRIPOS>BOND
     1     1     2 1   
     2     1    10 1   
     3     1    11 1   
     4     1    12 1   
     5     2     3 1   
     6     2    13 1   
     7     2    14 1   
     8     3     4 1   
     9     3    15 1   
    10     3    16 1   
    11     4     5 1   
    12     4    17 1   
    13     4    18 1   
    14     5     6 1   
    15     5     9 1   
    16     6     7 1   
    17     6     7 1   
    18     7     8 1   
    19     8     9 1   
    20     8     9 1   
    21     8    19 1   
    22     9    20 1   
@<TRIPOS>SUBSTRUCTURE
     1 MOL         1 TEMP              0 ****  ****    0 ROOT
