@<TRIPOS>MOLECULE								
MOL								
20	20	1	0	0				
SMALL								
No	Charge	or	Current	Charge				
@<TRIPOS>ATOM								
1	C1	-1.8170	0.6690	-1.4790	c3	1	MOL	-0.0574796410713743
2	C2	-2.3800	-0.6260	-0.8870	c3	1	MOL	0.0502276851611604
3	C3	-1.3980	-1.5730	-0.1520	c3	1	MOL	0.029434866161889
4	C4	0.0970	-1.4390	-0.4450	c3	1	MOL	-0.1367489029942565
5	N1	0.7060	-0.2400	0.1140	na	1	MOL	0.3986932518358891
6	N2	0.4550	0.1350	1.3510	nc	1	MOL	-0.2502196049522864
7	N3	1.1590	1.1590	1.6180	nd	1	MOL	-0.3193359951280445
8	C5	1.9060	1.4710	0.5370	cd	1	MOL	0.1155272094562996
9	C6	1.6240	0.5690	-0.4380	cc	1	MOL	-0.3665531218424377
10	H1	-2.6130	1.2140	-1.9780	hc	1	MOL	0.0130890605865177
11	H2	-1.0480	0.4770	-2.2200	hc	1	MOL	0.0130890605865177
12	H3	-1.3990	1.3190	-0.7190	hc	1	MOL	0.0130890605865177
13	H4	-3.1860	-0.3800	-0.2040	hc	1	MOL	-0.0014480429946745
14	H5	-2.8410	-1.1790	-1.7010	hc	1	MOL	-0.0014480429946745
15	H6	-1.5200	-1.4660	0.9180	hc	1	MOL	0.013903235081947
16	H7	-1.6660	-2.6000	-0.3830	hc	1	MOL	0.013903235081947
17	H8	0.6130	-2.2970	-0.0310	h1	1	MOL	0.0718422229084886
18	H9	0.2970	-1.4230	-1.5080	h1	1	MOL	0.0718422229084886
19	H10	2.5770	2.3020	0.5330	h4	1	MOL	0.1170117401835705
20	H11	1.9780	0.4440	-1.4380	h4	1	MOL	0.2115805014385151
@<TRIPOS>BOND								
1	1	2	1					
2	1	10	1					
3	1	11	1					
4	1	12	1					
5	2	3	1					
6	2	13	1					
7	2	14	1					
8	3	4	1					
9	3	15	1					
10	3	16	1					
11	4	5	1					
12	4	17	1					
13	4	18	1					
14	5	6	1					
15	5	9	1					
16	6	7	2					
17	7	8	1					
18	8	9	2					
19	8	19	1					
20	9	20	1					
@<TRIPOS>SUBSTRUCTURE								
1	MOL	1	TEMP	0	****	****	0	ROOT
