@<TRIPOS>MOLECULE								
MOL								
20	20	1	0	0				
SMALL								
No	Charge	or	Current	Charge				
@<TRIPOS>ATOM								
1	C1	-1.6860	0.5350	-2.2270	c3	1	MOL	-0.0574796410713743
2	C2	-2.1740	-0.2470	-1.0050	c3	1	MOL	0.0502276851611604
3	C3	-1.3110	-1.4510	-0.5920	c3	1	MOL	0.029434866161889
4	C4	0.2030	-1.2640	-0.6730	c3	1	MOL	-0.1367489029942565
5	N1	0.6970	-0.2160	0.2120	na	1	MOL	0.3986932518358891
6	N2	0.3700	-0.2120	1.4870	nc	1	MOL	-0.2502196049522864
7	N3	0.9640	0.7580	2.0550	nd	1	MOL	-0.3193359951280445
8	C5	1.7070	1.4160	1.1390	cd	1	MOL	0.1155272094562996
9	C6	1.5450	0.7900	-0.0550	cc	1	MOL	-0.3665531218424377
10	H1	-2.4180	1.2840	-2.5120	hc	1	MOL	0.0130890605865177
11	H2	-1.5340	-0.1150	-3.0870	hc	1	MOL	0.0130890605865177
12	H3	-0.7550	1.0550	-2.0310	hc	1	MOL	0.0130890605865177
13	H4	-2.2460	0.4400	-0.1670	hc	1	MOL	-0.0014480429946745
14	H5	-3.1820	-0.6100	-1.1840	hc	1	MOL	-0.0014480429946745
15	H6	-1.5740	-1.7560	0.4130	hc	1	MOL	0.013903235081947
16	H7	-1.5360	-2.2910	-1.2460	hc	1	MOL	0.013903235081947
17	H8	0.6980	-2.1900	-0.4070	h1	1	MOL	0.0718422229084886
18	H9	0.5150	-1.0010	-1.6730	h1	1	MOL	0.0718422229084886
19	H10	2.2930	2.2710	1.3940	h4	1	MOL	0.1170117401835705
20	H11	1.9460	0.9660	-1.0290	h4	1	MOL	0.2115805014385151
@<TRIPOS>BOND								
1	1	2	1					
2	1	10	1					
3	1	11	1					
4	1	12	1					
5	2	3	1					
6	2	13	1					
7	2	14	1					
8	3	4	1					
9	3	15	1					
10	3	16	1					
11	4	5	1					
12	4	17	1					
13	4	18	1					
14	5	6	1					
15	5	9	1					
16	6	7	2					
17	7	8	1					
18	8	9	2					
19	8	19	1					
20	9	20	1					
@<TRIPOS>SUBSTRUCTURE								
1	MOL	1	TEMP	0	****	****	0	ROOT
