@<TRIPOS>MOLECULE
MOL
   20    22     1     0     0
SMALL
No Charge or Current Charge


@<TRIPOS>ATOM
      1 C1          -1.7130     0.4250    -2.1510 c3         1 MOL       0.000000
      2 C2          -2.2370    -0.3880    -0.9650 c3         1 MOL       0.000000
      3 C3          -1.3170    -1.5110    -0.4440 c3         1 MOL       0.000000
      4 C4           0.1880    -1.3030    -0.5930 c3         1 MOL       0.000000
      5 N1           0.6970    -0.1910     0.2000 n3         1 MOL       0.000000
      6 N2           0.3690    -0.0660     1.4690 n3         1 MOL       0.000000
      7 N3           0.9920     0.9290     1.9550 n3         1 MOL       0.000000
      8 C5           1.7630     1.4780     0.9920 c3         1 MOL       0.000000
      9 C6           1.5830     0.7570    -0.1460 c3         1 MOL       0.000000
     10 H1          -2.4660     1.1340    -2.4770 hc         1 MOL       0.000000
     11 H2          -1.4740    -0.2070    -3.0030 hc         1 MOL       0.000000
     12 H3          -0.8270     0.9920    -1.8920 hc         1 MOL       0.000000
     13 H4          -2.4370     0.3030    -0.1510 hc         1 MOL       0.000000
     14 H5          -3.1930    -0.8310    -1.2240 hc         1 MOL       0.000000
     15 H6          -1.5440    -1.7140     0.5940 hc         1 MOL       0.000000
     16 H7          -1.5320    -2.4270    -0.9910 hc         1 MOL       0.000000
     17 H8           0.7060    -2.2030    -0.2830 h1         1 MOL       0.000000
     18 H9           0.4600    -1.1050    -1.6190 h1         1 MOL       0.000000
     19 H10          2.3760     2.3330     1.1760 h1         1 MOL       0.000000
     20 H11          1.9900     0.8370    -1.1300 h1         1 MOL       0.000000
@<TRIPOS>BOND
     1     1     2 1   
     2     1    10 1   
     3     1    11 1   
     4     1    12 1   
     5     2     3 1   
     6     2    13 1   
     7     2    14 1   
     8     3     4 1   
     9     3    15 1   
    10     3    16 1   
    11     4     5 1   
    12     4    17 1   
    13     4    18 1   
    14     5     6 1   
    15     5     9 1   
    16     6     7 1   
    17     6     7 1   
    18     7     8 1   
    19     8     9 1   
    20     8     9 1   
    21     8    19 1   
    22     9    20 1   
@<TRIPOS>SUBSTRUCTURE
     1 MOL         1 TEMP              0 ****  ****    0 ROOT
