@<TRIPOS>MOLECULE
MOL
   20    22     1     0     0
SMALL
No Charge or Current Charge


@<TRIPOS>ATOM
      1 C1          -2.0360     0.5020    -2.8840 c3         1 MOL       0.000000
      2 C2          -1.7810     0.3230    -1.3870 c3         1 MOL       0.000000
      3 C3          -1.1580    -1.0420    -1.0360 c3         1 MOL       0.000000
      4 C4           0.3540    -1.0090    -0.8140 c3         1 MOL       0.000000
      5 N1           0.7380    -0.2440     0.3620 n3         1 MOL       0.000000
      6 N2           0.4270    -0.6810     1.5650 n3         1 MOL       0.000000
      7 N3           0.8720     0.1420     2.4240 n3         1 MOL       0.000000
      8 C5           1.4900     1.1570     1.7820 c3         1 MOL       0.000000
      9 C6           1.4130     0.9140     0.4470 c3         1 MOL       0.000000
     10 H1          -2.4550     1.4810    -3.0960 hc         1 MOL       0.000000
     11 H2          -2.7340    -0.2440    -3.2510 hc         1 MOL       0.000000
     12 H3          -1.1190     0.4060    -3.4620 hc         1 MOL       0.000000
     13 H4          -1.1540     1.1280    -1.0170 hc         1 MOL       0.000000
     14 H5          -2.7270     0.4260    -0.8640 hc         1 MOL       0.000000
     15 H6          -1.6070    -1.4410    -0.1330 hc         1 MOL       0.000000
     16 H7          -1.3610    -1.7600    -1.8250 hc         1 MOL       0.000000
     17 H8           0.7370    -2.0130    -0.6880 h1         1 MOL       0.000000
     18 H9           0.8650    -0.5630    -1.6590 h1         1 MOL       0.000000
     19 H10          1.9420     1.9690     2.3090 h1         1 MOL       0.000000
     20 H11          1.7680     1.4420    -0.4110 h1         1 MOL       0.000000
@<TRIPOS>BOND
     1     1     2 1   
     2     1    10 1   
     3     1    11 1   
     4     1    12 1   
     5     2     3 1   
     6     2    13 1   
     7     2    14 1   
     8     3     4 1   
     9     3    15 1   
    10     3    16 1   
    11     4     5 1   
    12     4    17 1   
    13     4    18 1   
    14     5     6 1   
    15     5     9 1   
    16     6     7 1   
    17     6     7 1   
    18     7     8 1   
    19     8     9 1   
    20     8     9 1   
    21     8    19 1   
    22     9    20 1   
@<TRIPOS>SUBSTRUCTURE
     1 MOL         1 TEMP              0 ****  ****    0 ROOT
