@<TRIPOS>MOLECULE								
MOL								
20	20	1	0	0				
SMALL								
No	Charge	or	Current	Charge				
@<TRIPOS>ATOM								
1	C1	-2.0010	0.7710	-1.1840	c3	1	MOL	-0.0574796410713743
2	C2	-2.3400	-0.7080	-0.9930	c3	1	MOL	0.0502276851611604
3	C3	-1.5110	-1.4640	0.0540	c3	1	MOL	0.029434866161889
4	C4	0.0010	-1.5270	-0.1740	c3	1	MOL	-0.1367489029942565
5	N1	0.7090	-0.2930	0.1420	na	1	MOL	0.3986932518358891
6	N2	0.5490	0.2920	1.3100	nc	1	MOL	-0.2502196049522864
7	N3	1.3190	1.3010	1.3690	nd	1	MOL	-0.3193359951280445
8	C5	2.0190	1.3870	0.2170	cd	1	MOL	0.1155272094562996
9	C6	1.6350	0.3560	-0.5800	cc	1	MOL	-0.3665531218424377
10	H1	-2.7270	1.2370	-1.8440	hc	1	MOL	0.0130890605865177
11	H2	-1.0230	0.9130	-1.6270	hc	1	MOL	0.0130890605865177
12	H3	-2.0160	1.3070	-0.2410	hc	1	MOL	0.0130890605865177
13	H4	-3.3830	-0.7970	-0.7030	hc	1	MOL	-0.0014480429946745
14	H5	-2.2520	-1.2190	-1.9510	hc	1	MOL	-0.0014480429946745
15	H6	-1.6900	-1.0520	1.0400	hc	1	MOL	0.013903235081947
16	H7	-1.8600	-2.4930	0.0820	hc	1	MOL	0.013903235081947
17	H8	0.4240	-2.3120	0.4390	h1	1	MOL	0.0718422229084886
18	H9	0.2280	-1.7590	-1.2070	h1	1	MOL	0.0718422229084886
19	H10	2.7310	2.1640	0.0440	h4	1	MOL	0.1170117401835705
20	H11	1.9270	0.0470	-1.5600	h4	1	MOL	0.2115805014385151
@<TRIPOS>BOND								
1	1	2	1					
2	1	10	1					
3	1	11	1					
4	1	12	1					
5	2	3	1					
6	2	13	1					
7	2	14	1					
8	3	4	1					
9	3	15	1					
10	3	16	1					
11	4	5	1					
12	4	17	1					
13	4	18	1					
14	5	6	1					
15	5	9	1					
16	6	7	2					
17	7	8	1					
18	8	9	2					
19	8	19	1					
20	9	20	1					
@<TRIPOS>SUBSTRUCTURE								
1	MOL	1	TEMP	0	****	****	0	ROOT
