@<TRIPOS>MOLECULE
MOL
   20    22     1     0     0
SMALL
No Charge or Current Charge


@<TRIPOS>ATOM
      1 C1          -1.8470     0.6920    -1.4070 c3         1 MOL       0.000000
      2 C2          -2.3820    -0.6560    -0.9210 c3         1 MOL       0.000000
      3 C3          -1.4250    -1.5520    -0.1040 c3         1 MOL       0.000000
      4 C4           0.0730    -1.4550    -0.3990 c3         1 MOL       0.000000
      5 N1           0.7040    -0.2460     0.1160 n3         1 MOL       0.000000
      6 N2           0.4850     0.1570     1.3500 n3         1 MOL       0.000000
      7 N3           1.2040     1.1800     1.5760 n3         1 MOL       0.000000
      8 C5           1.9290     1.4620     0.4720 c3         1 MOL       0.000000
      9 C6           1.6160     0.5410    -0.4760 c3         1 MOL       0.000000
     10 H1          -2.6270     1.2210    -1.9450 hc         1 MOL       0.000000
     11 H2          -1.0110     0.5740    -2.0880 hc         1 MOL       0.000000
     12 H3          -1.5250     1.3240    -0.5870 hc         1 MOL       0.000000
     13 H4          -3.2750    -0.4930    -0.3260 hc         1 MOL       0.000000
     14 H5          -2.7080    -1.2130    -1.7970 hc         1 MOL       0.000000
     15 H6          -1.5530    -1.3560     0.9530 hc         1 MOL       0.000000
     16 H7          -1.7070    -2.5890    -0.2560 hc         1 MOL       0.000000
     17 H8           0.5760    -2.3040     0.0470 h1         1 MOL       0.000000
     18 H9           0.2730    -1.4810    -1.4630 h1         1 MOL       0.000000
     19 H10          2.6060     2.2870     0.4340 h1         1 MOL       0.000000
     20 H11          1.9460     0.3910    -1.4810 h1         1 MOL       0.000000
@<TRIPOS>BOND
     1     1     2 1   
     2     1    10 1   
     3     1    11 1   
     4     1    12 1   
     5     2     3 1   
     6     2    13 1   
     7     2    14 1   
     8     3     4 1   
     9     3    15 1   
    10     3    16 1   
    11     4     5 1   
    12     4    17 1   
    13     4    18 1   
    14     5     6 1   
    15     5     9 1   
    16     6     7 1   
    17     6     7 1   
    18     7     8 1   
    19     8     9 1   
    20     8     9 1   
    21     8    19 1   
    22     9    20 1   
@<TRIPOS>SUBSTRUCTURE
     1 MOL         1 TEMP              0 ****  ****    0 ROOT
