@<TRIPOS>MOLECULE
MOL
   20    22     1     0     0
SMALL
No Charge or Current Charge


@<TRIPOS>ATOM
      1 C1          -1.8630     0.6870    -1.4140 c3         1 MOL       0.000000
      2 C2          -2.3160    -0.7340    -1.0740 c3         1 MOL       0.000000
      3 C3          -1.4950    -1.4800    -0.0120 c3         1 MOL       0.000000
      4 C4           0.0240    -1.5050    -0.1980 c3         1 MOL       0.000000
      5 N1           0.6940    -0.2670     0.1810 n3         1 MOL       0.000000
      6 N2           0.4600     0.2950     1.3480 n3         1 MOL       0.000000
      7 N3           1.2170     1.3080     1.4710 n3         1 MOL       0.000000
      8 C5           1.9840     1.4200     0.3650 c3         1 MOL       0.000000
      9 C6           1.6570     0.4020    -0.4720 c3         1 MOL       0.000000
     10 H1          -2.5740     1.1510    -2.0910 hc         1 MOL       0.000000
     11 H2          -0.8970     0.6970    -1.9060 hc         1 MOL       0.000000
     12 H3          -1.7910     1.3090    -0.5290 hc         1 MOL       0.000000
     13 H4          -3.3460    -0.7080    -0.7300 hc         1 MOL       0.000000
     14 H5          -2.3220    -1.3230    -1.9890 hc         1 MOL       0.000000
     15 H6          -1.7030    -1.0740     0.9710 hc         1 MOL       0.000000
     16 H7          -1.8250    -2.5150     0.0080 hc         1 MOL       0.000000
     17 H8           0.4460    -2.3020     0.4020 h1         1 MOL       0.000000
     18 H9           0.2890    -1.6980    -1.2300 h1         1 MOL       0.000000
     19 H10          2.6980     2.2050     0.2490 h1         1 MOL       0.000000
     20 H11          2.0100     0.1130    -1.4380 h1         1 MOL       0.000000
@<TRIPOS>BOND
     1     1     2 1   
     2     1    10 1   
     3     1    11 1   
     4     1    12 1   
     5     2     3 1   
     6     2    13 1   
     7     2    14 1   
     8     3     4 1   
     9     3    15 1   
    10     3    16 1   
    11     4     5 1   
    12     4    17 1   
    13     4    18 1   
    14     5     6 1   
    15     5     9 1   
    16     6     7 1   
    17     6     7 1   
    18     7     8 1   
    19     8     9 1   
    20     8     9 1   
    21     8    19 1   
    22     9    20 1   
@<TRIPOS>SUBSTRUCTURE
     1 MOL         1 TEMP              0 ****  ****    0 ROOT
