@<TRIPOS>MOLECULE
MOL
   20    22     1     0     0
SMALL
No Charge or Current Charge


@<TRIPOS>ATOM
      1 C1          -2.8690     1.1360    -0.8100 c3         1 MOL       0.000000
      2 C2          -2.1180    -0.1850    -0.9770 c3         1 MOL       0.000000
      3 C3          -1.7380    -0.8320     0.3680 c3         1 MOL       0.000000
      4 C4          -0.3510    -1.4720     0.3910 c3         1 MOL       0.000000
      5 N1           0.7210    -0.5000     0.2360 n3         1 MOL       0.000000
      6 N2           0.9160     0.4230     1.1560 n3         1 MOL       0.000000
      7 N3           1.9070     1.1390     0.8090 n3         1 MOL       0.000000
      8 C5           2.3910     0.6800    -0.3650 c3         1 MOL       0.000000
      9 C6           1.6310    -0.3800    -0.7430 c3         1 MOL       0.000000
     10 H1          -3.1460     1.5530    -1.7740 hc         1 MOL       0.000000
     11 H2          -2.2520     1.8640    -0.2940 hc         1 MOL       0.000000
     12 H3          -3.7810     1.0040    -0.2330 hc         1 MOL       0.000000
     13 H4          -2.7110    -0.8790    -1.5660 hc         1 MOL       0.000000
     14 H5          -1.2200     0.0110    -1.5560 hc         1 MOL       0.000000
     15 H6          -1.7660    -0.0910     1.1590 hc         1 MOL       0.000000
     16 H7          -2.4610    -1.5970     0.6380 hc         1 MOL       0.000000
     17 H8          -0.1920    -1.9920     1.3260 h1         1 MOL       0.000000
     18 H9          -0.2380    -2.1900    -0.4120 h1         1 MOL       0.000000
     19 H10          3.2310     1.1320    -0.8460 h1         1 MOL       0.000000
     20 H11          1.6610    -1.0330    -1.5880 h1         1 MOL       0.000000
@<TRIPOS>BOND
     1     1     2 1   
     2     1    10 1   
     3     1    11 1   
     4     1    12 1   
     5     2     3 1   
     6     2    13 1   
     7     2    14 1   
     8     3     4 1   
     9     3    15 1   
    10     3    16 1   
    11     4     5 1   
    12     4    17 1   
    13     4    18 1   
    14     5     6 1   
    15     5     9 1   
    16     6     7 1   
    17     6     7 1   
    18     7     8 1   
    19     8     9 1   
    20     8     9 1   
    21     8    19 1   
    22     9    20 1   
@<TRIPOS>SUBSTRUCTURE
     1 MOL         1 TEMP              0 ****  ****    0 ROOT
