@<TRIPOS>MOLECULE								
MOL								
20	20	1	0	0				
SMALL								
No	Charge	or	Current	Charge				
@<TRIPOS>ATOM								
1	C1	-1.6910	0.5410	-2.1430	c3	1	MOL	-0.0574796410713743
2	C2	-2.2300	-0.3280	-1.0040	c3	1	MOL	0.0502276851611604
3	C3	-1.3210	-1.4800	-0.5330	c3	1	MOL	0.029434866161889
4	C4	0.1870	-1.2730	-0.6550	c3	1	MOL	-0.1367489029942565
5	N1	0.6940	-0.2040	0.1980	na	1	MOL	0.3986932518358891
6	N2	0.3540	-0.1390	1.4680	nc	1	MOL	-0.2502196049522864
7	N3	0.9780	0.8260	2.0080	nd	1	MOL	-0.3193359951280445
8	C5	1.7620	1.4160	1.0810	cd	1	MOL	0.1155272094562996
9	C6	1.5890	0.7540	-0.0920	cc	1	MOL	-0.3665531218424377
10	H1	-2.4410	1.2650	-2.4450	hc	1	MOL	0.0130890605865177
11	H2	-1.4390	-0.0490	-3.0210	hc	1	MOL	0.0130890605865177
12	H3	-0.8100	1.0960	-1.8440	hc	1	MOL	0.0130890605865177
13	H4	-2.4340	0.3220	-0.1580	hc	1	MOL	-0.0014480429946745
14	H5	-3.1860	-0.7520	-1.2940	hc	1	MOL	-0.0014480429946745
15	H6	-1.5600	-1.7370	0.4910	hc	1	MOL	0.013903235081947
16	H7	-1.5340	-2.3650	-1.1300	hc	1	MOL	0.013903235081947
17	H8	0.6980	-2.1890	-0.3840	h1	1	MOL	0.0718422229084886
18	H9	0.4700	-1.0260	-1.6680	h1	1	MOL	0.0718422229084886
19	H10	2.3790	2.2570	1.3130	h4	1	MOL	0.1170117401835705
20	H11	2.0080	0.8800	-1.0670	h4	1	MOL	0.2115805014385151
@<TRIPOS>BOND								
1	1	2	1					
2	1	10	1					
3	1	11	1					
4	1	12	1					
5	2	3	1					
6	2	13	1					
7	2	14	1					
8	3	4	1					
9	3	15	1					
10	3	16	1					
11	4	5	1					
12	4	17	1					
13	4	18	1					
14	5	6	1					
15	5	9	1					
16	6	7	2					
17	7	8	1					
18	8	9	2					
19	8	19	1					
20	9	20	1					
@<TRIPOS>SUBSTRUCTURE								
1	MOL	1	TEMP	0	****	****	0	ROOT
