@<TRIPOS>MOLECULE								
MOL								
20	20	1	0	0				
SMALL								
No	Charge	or	Current	Charge				
@<TRIPOS>ATOM								
1	C1	-2.1250	0.9030	-2.8900	c3	1	MOL	-0.0574796410713743
2	C2	-1.4370	0.6620	-1.5460	c3	1	MOL	0.0502276851611604
3	C3	-0.9370	-0.7880	-1.3740	c3	1	MOL	0.029434866161889
4	C4	0.5150	-0.9040	-0.9170	c3	1	MOL	-0.1367489029942565
5	N1	0.7420	-0.3310	0.4010	na	1	MOL	0.3986932518358891
6	N2	0.1820	-0.8740	1.4630	nc	1	MOL	-0.2502196049522864
7	N3	0.5290	-0.2110	2.4900	nd	1	MOL	-0.3193359951280445
8	C5	1.3400	0.7990	2.1070	cd	1	MOL	0.1155272094562996
9	C6	1.4860	0.7280	0.7580	cc	1	MOL	-0.3665531218424377
10	H1	-2.4800	1.9260	-2.9700	hc	1	MOL	0.0130890605865177
11	H2	-2.9790	0.2450	-3.0180	hc	1	MOL	0.0130890605865177
12	H3	-1.4420	0.7220	-3.7150	hc	1	MOL	0.0130890605865177
13	H4	-0.6030	1.3540	-1.4570	hc	1	MOL	-0.0014480429946745
14	H5	-2.1150	0.9150	-0.7380	hc	1	MOL	-0.0014480429946745
15	H6	-1.5630	-1.3290	-0.6750	hc	1	MOL	0.013903235081947
16	H7	-1.0050	-1.3170	-2.3210	hc	1	MOL	0.013903235081947
17	H8	0.8180	-1.9420	-0.8810	h1	1	MOL	0.0718422229084886
18	H9	1.1750	-0.3860	-1.6020	h1	1	MOL	0.0718422229084886
19	H10	1.7550	1.4890	2.8090	h4	1	MOL	0.1170117401835705
20	H11	2.0340	1.3140	0.0530	h4	1	MOL	0.2115805014385151
@<TRIPOS>BOND								
1	1	2	1					
2	1	10	1					
3	1	11	1					
4	1	12	1					
5	2	3	1					
6	2	13	1					
7	2	14	1					
8	3	4	1					
9	3	15	1					
10	3	16	1					
11	4	5	1					
12	4	17	1					
13	4	18	1					
14	5	6	1					
15	5	9	1					
16	6	7	2					
17	7	8	1					
18	8	9	2					
19	8	19	1					
20	9	20	1					
@<TRIPOS>SUBSTRUCTURE								
1	MOL	1	TEMP	0	****	****	0	ROOT
