@<TRIPOS>MOLECULE
MOL
   20    22     1     0     0
SMALL
No Charge or Current Charge


@<TRIPOS>ATOM
      1 C1          -1.9700     0.4850    -2.6800 c3         1 MOL       0.000000
      2 C2          -1.9770     0.1540    -1.1860 c3         1 MOL       0.000000
      3 C3          -1.2760    -1.1670    -0.8420 c3         1 MOL       0.000000
      4 C4           0.2500    -1.0880    -0.7810 c3         1 MOL       0.000000
      5 N1           0.7310    -0.2350     0.2950 n3         1 MOL       0.000000
      6 N2           0.5820    -0.6060     1.5490 n3         1 MOL       0.000000
      7 N3           1.0750     0.2930     2.3000 n3         1 MOL       0.000000
      8 C5           1.5660     1.2880     1.5300 c3         1 MOL       0.000000
      9 C6           1.3500     0.9550     0.2310 c3         1 MOL       0.000000
     10 H1          -2.4790     1.4240    -2.8720 hc         1 MOL       0.000000
     11 H2          -2.4760    -0.2880    -3.2510 hc         1 MOL       0.000000
     12 H3          -0.9610     0.5770    -3.0740 hc         1 MOL       0.000000
     13 H4          -1.5340     0.9670    -0.6190 hc         1 MOL       0.000000
     14 H5          -3.0090     0.0890    -0.8540 hc         1 MOL       0.000000
     15 H6          -1.6230    -1.5270     0.1200 hc         1 MOL       0.000000
     16 H7          -1.5390    -1.9260    -1.5740 hc         1 MOL       0.000000
     17 H8           0.6670    -2.0730    -0.6240 h1         1 MOL       0.000000
     18 H9           0.6650    -0.6970    -1.7010 h1         1 MOL       0.000000
     19 H10          2.0320     2.1520     1.9510 h1         1 MOL       0.000000
     20 H11          1.5770     1.4410    -0.6930 h1         1 MOL       0.000000
@<TRIPOS>BOND
     1     1     2 1   
     2     1    10 1   
     3     1    11 1   
     4     1    12 1   
     5     2     3 1   
     6     2    13 1   
     7     2    14 1   
     8     3     4 1   
     9     3    15 1   
    10     3    16 1   
    11     4     5 1   
    12     4    17 1   
    13     4    18 1   
    14     5     6 1   
    15     5     9 1   
    16     6     7 1   
    17     6     7 1   
    18     7     8 1   
    19     8     9 1   
    20     8     9 1   
    21     8    19 1   
    22     9    20 1   
@<TRIPOS>SUBSTRUCTURE
     1 MOL         1 TEMP              0 ****  ****    0 ROOT
