@<TRIPOS>MOLECULE
MOL
   20    22     1     0     0
SMALL
No Charge or Current Charge


@<TRIPOS>ATOM
      1 C1          -1.7780     0.6150    -1.8830 c3         1 MOL       0.000000
      2 C2          -2.3570    -0.4190    -0.9140 c3         1 MOL       0.000000
      3 C3          -1.3910    -1.4960    -0.3530 c3         1 MOL       0.000000
      4 C4           0.1070    -1.3220    -0.6000 c3         1 MOL       0.000000
      5 N1           0.7000    -0.2180     0.1470 n3         1 MOL       0.000000
      6 N2           0.4240    -0.0410     1.4220 n3         1 MOL       0.000000
      7 N3           1.1210     0.9270     1.8600 n3         1 MOL       0.000000
      8 C5           1.8910     1.4020     0.8570 c3         1 MOL       0.000000
      9 C6           1.6290     0.6640    -0.2530 c3         1 MOL       0.000000
     10 H1          -2.5660     1.2840    -2.2160 hc         1 MOL       0.000000
     11 H2          -1.3550     0.1540    -2.7720 hc         1 MOL       0.000000
     12 H3          -1.0120     1.2220    -1.4170 hc         1 MOL       0.000000
     13 H4          -2.7870     0.1230    -0.0780 hc         1 MOL       0.000000
     14 H5          -3.1870    -0.9250    -1.3970 hc         1 MOL       0.000000
     15 H6          -1.5490    -1.6130     0.7100 hc         1 MOL       0.000000
     16 H7          -1.6370    -2.4550    -0.8020 hc         1 MOL       0.000000
     17 H8           0.6190    -2.2320    -0.3120 h1         1 MOL       0.000000
     18 H9           0.3210    -1.1420    -1.6440 h1         1 MOL       0.000000
     19 H10          2.5610     2.2220     0.9970 h1         1 MOL       0.000000
     20 H11          2.0050     0.6950    -1.2530 h1         1 MOL       0.000000
@<TRIPOS>BOND
     1     1     2 1   
     2     1    10 1   
     3     1    11 1   
     4     1    12 1   
     5     2     3 1   
     6     2    13 1   
     7     2    14 1   
     8     3     4 1   
     9     3    15 1   
    10     3    16 1   
    11     4     5 1   
    12     4    17 1   
    13     4    18 1   
    14     5     6 1   
    15     5     9 1   
    16     6     7 1   
    17     6     7 1   
    18     7     8 1   
    19     8     9 1   
    20     8     9 1   
    21     8    19 1   
    22     9    20 1   
@<TRIPOS>SUBSTRUCTURE
     1 MOL         1 TEMP              0 ****  ****    0 ROOT
