@<TRIPOS>MOLECULE
MOL
   20    22     1     0     0
SMALL
No Charge or Current Charge


@<TRIPOS>ATOM
      1 C1          -1.6890     0.4250    -2.3810 c3         1 MOL       0.000000
      2 C2          -2.1110    -0.1980    -1.0490 c3         1 MOL       0.000000
      3 C3          -1.2970    -1.4230    -0.6140 c3         1 MOL       0.000000
      4 C4           0.2220    -1.2640    -0.6410 c3         1 MOL       0.000000
      5 N1           0.6990    -0.2150     0.2500 n3         1 MOL       0.000000
      6 N2           0.4380    -0.2700     1.5390 n3         1 MOL       0.000000
      7 N3           0.9790     0.7300     2.1070 n3         1 MOL       0.000000
      8 C5           1.6210     1.4690     1.1770 c3         1 MOL       0.000000
      9 C6           1.4490     0.8640    -0.0280 c3         1 MOL       0.000000
     10 H1          -2.3850     1.2060    -2.6710 hc         1 MOL       0.000000
     11 H2          -1.6710    -0.3120    -3.1800 hc         1 MOL       0.000000
     12 H3          -0.7060     0.8790    -2.3240 hc         1 MOL       0.000000
     13 H4          -2.0580     0.5590    -0.2720 hc         1 MOL       0.000000
     14 H5          -3.1530    -0.4980    -1.1080 hc         1 MOL       0.000000
     15 H6          -1.5980    -1.7190     0.3840 hc         1 MOL       0.000000
     16 H7          -1.5280    -2.2600    -1.2720 hc         1 MOL       0.000000
     17 H8           0.6920    -2.1920    -0.3450 h1         1 MOL       0.000000
     18 H9           0.5770    -1.0170    -1.6320 h1         1 MOL       0.000000
     19 H10          2.1500     2.3620     1.4290 h1         1 MOL       0.000000
     20 H11          1.7840     1.0990    -1.0140 h1         1 MOL       0.000000
@<TRIPOS>BOND
     1     1     2 1   
     2     1    10 1   
     3     1    11 1   
     4     1    12 1   
     5     2     3 1   
     6     2    13 1   
     7     2    14 1   
     8     3     4 1   
     9     3    15 1   
    10     3    16 1   
    11     4     5 1   
    12     4    17 1   
    13     4    18 1   
    14     5     6 1   
    15     5     9 1   
    16     6     7 1   
    17     6     7 1   
    18     7     8 1   
    19     8     9 1   
    20     8     9 1   
    21     8    19 1   
    22     9    20 1   
@<TRIPOS>SUBSTRUCTURE
     1 MOL         1 TEMP              0 ****  ****    0 ROOT
