@<TRIPOS>MOLECULE
MOL
   20    22     1     0     0
SMALL
No Charge or Current Charge


@<TRIPOS>ATOM
      1 C1          -2.9630     1.0590    -1.0570 c3         1 MOL       0.000000
      2 C2          -2.0480    -0.1650    -1.0850 c3         1 MOL       0.000000
      3 C3          -1.7620    -0.7240     0.3170 c3         1 MOL       0.000000
      4 C4          -0.4030    -1.4110     0.4580 c3         1 MOL       0.000000
      5 N1           0.7140    -0.4910     0.3090 n3         1 MOL       0.000000
      6 N2           0.9230     0.4460     1.2100 n3         1 MOL       0.000000
      7 N3           1.9520     1.1110     0.8740 n3         1 MOL       0.000000
      8 C5           2.4410     0.6100    -0.2810 c3         1 MOL       0.000000
      9 C6           1.6480    -0.4290    -0.6530 c3         1 MOL       0.000000
     10 H1          -3.1700     1.4150    -2.0620 hc         1 MOL       0.000000
     11 H2          -2.5000     1.8700    -0.5040 hc         1 MOL       0.000000
     12 H3          -3.9140     0.8340    -0.5840 hc         1 MOL       0.000000
     13 H4          -2.4800    -0.9440    -1.7090 hc         1 MOL       0.000000
     14 H5          -1.1150     0.1250    -1.5590 hc         1 MOL       0.000000
     15 H6          -1.7970     0.0760     1.0490 hc         1 MOL       0.000000
     16 H7          -2.5300    -1.4370     0.6020 hc         1 MOL       0.000000
     17 H8          -0.3170    -1.8740     1.4320 h1         1 MOL       0.000000
     18 H9          -0.2760    -2.1830    -0.2900 h1         1 MOL       0.000000
     19 H10          3.3090     1.0160    -0.7530 h1         1 MOL       0.000000
     20 H11          1.6700    -1.1010    -1.4820 h1         1 MOL       0.000000
@<TRIPOS>BOND
     1     1     2 1   
     2     1    10 1   
     3     1    11 1   
     4     1    12 1   
     5     2     3 1   
     6     2    13 1   
     7     2    14 1   
     8     3     4 1   
     9     3    15 1   
    10     3    16 1   
    11     4     5 1   
    12     4    17 1   
    13     4    18 1   
    14     5     6 1   
    15     5     9 1   
    16     6     7 1   
    17     6     7 1   
    18     7     8 1   
    19     8     9 1   
    20     8     9 1   
    21     8    19 1   
    22     9    20 1   
@<TRIPOS>SUBSTRUCTURE
     1 MOL         1 TEMP              0 ****  ****    0 ROOT
