@<TRIPOS>MOLECULE
MOL
   20    22     1     0     0
SMALL
No Charge or Current Charge


@<TRIPOS>ATOM
      1 C1          -1.7560     0.6280    -1.5570 c3         1 MOL       0.000000
      2 C2          -2.3430    -0.6760    -1.0120 c3         1 MOL       0.000000
      3 C3          -1.4490    -1.5290    -0.0850 c3         1 MOL       0.000000
      4 C4           0.0650    -1.4760    -0.3030 c3         1 MOL       0.000000
      5 N1           0.6910    -0.2480     0.1710 n3         1 MOL       0.000000
      6 N2           0.4310     0.2220     1.3730 n3         1 MOL       0.000000
      7 N3           1.1530     1.2480     1.5740 n3         1 MOL       0.000000
      8 C5           1.9210     1.4640     0.4850 c3         1 MOL       0.000000
      9 C6           1.6350     0.4980    -0.4250 c3         1 MOL       0.000000
     10 H1          -2.4950     1.1300    -2.1730 hc         1 MOL       0.000000
     11 H2          -0.8860     0.4500    -2.1800 hc         1 MOL       0.000000
     12 H3          -1.4680     1.3090    -0.7640 hc         1 MOL       0.000000
     13 H4          -3.2640    -0.4590    -0.4800 hc         1 MOL       0.000000
     14 H5          -2.6310    -1.2860    -1.8660 hc         1 MOL       0.000000
     15 H6          -1.6300    -1.2600     0.9480 hc         1 MOL       0.000000
     16 H7          -1.7430    -2.5690    -0.1830 hc         1 MOL       0.000000
     17 H8           0.5260    -2.3040     0.2210 h1         1 MOL       0.000000
     18 H9           0.3220    -1.5720    -1.3500 h1         1 MOL       0.000000
     19 H10          2.6090     2.2800     0.4300 h1         1 MOL       0.000000
     20 H11          2.0010     0.2920    -1.4070 h1         1 MOL       0.000000
@<TRIPOS>BOND
     1     1     2 1   
     2     1    10 1   
     3     1    11 1   
     4     1    12 1   
     5     2     3 1   
     6     2    13 1   
     7     2    14 1   
     8     3     4 1   
     9     3    15 1   
    10     3    16 1   
    11     4     5 1   
    12     4    17 1   
    13     4    18 1   
    14     5     6 1   
    15     5     9 1   
    16     6     7 1   
    17     6     7 1   
    18     7     8 1   
    19     8     9 1   
    20     8     9 1   
    21     8    19 1   
    22     9    20 1   
@<TRIPOS>SUBSTRUCTURE
     1 MOL         1 TEMP              0 ****  ****    0 ROOT
