@<TRIPOS>MOLECULE
MOL
   20    22     1     0     0
SMALL
No Charge or Current Charge


@<TRIPOS>ATOM
      1 C1          -1.7690     0.5880    -1.9930 c3         1 MOL       0.000000
      2 C2          -2.3230    -0.3470    -0.9150 c3         1 MOL       0.000000
      3 C3          -1.3860    -1.4700    -0.4110 c3         1 MOL       0.000000
      4 C4           0.1150    -1.2960    -0.6300 c3         1 MOL       0.000000
      5 N1           0.6980    -0.2170     0.1600 n3         1 MOL       0.000000
      6 N2           0.4200    -0.0950     1.4410 n3         1 MOL       0.000000
      7 N3           1.1020     0.8650     1.9170 n3         1 MOL       0.000000
      8 C5           1.8680     1.3890     0.9360 c3         1 MOL       0.000000
      9 C6           1.6160     0.6930    -0.2040 c3         1 MOL       0.000000
     10 H1          -2.5340     1.2950    -2.2950 hc         1 MOL       0.000000
     11 H2          -1.4600     0.0480    -2.8850 hc         1 MOL       0.000000
     12 H3          -0.9230     1.1610    -1.6330 hc         1 MOL       0.000000
     13 H4          -2.6100     0.2670    -0.0680 hc         1 MOL       0.000000
     14 H5          -3.2380    -0.8070    -1.2740 hc         1 MOL       0.000000
     15 H6          -1.5670    -1.6550     0.6390 hc         1 MOL       0.000000
     16 H7          -1.6350    -2.3930    -0.9300 hc         1 MOL       0.000000
     17 H8           0.6220    -2.2160    -0.3630 h1         1 MOL       0.000000
     18 H9           0.3430    -1.0840    -1.6640 h1         1 MOL       0.000000
     19 H10          2.5260     2.2110     1.1090 h1         1 MOL       0.000000
     20 H11          1.9940     0.7680    -1.2000 h1         1 MOL       0.000000
@<TRIPOS>BOND
     1     1     2 1   
     2     1    10 1   
     3     1    11 1   
     4     1    12 1   
     5     2     3 1   
     6     2    13 1   
     7     2    14 1   
     8     3     4 1   
     9     3    15 1   
    10     3    16 1   
    11     4     5 1   
    12     4    17 1   
    13     4    18 1   
    14     5     6 1   
    15     5     9 1   
    16     6     7 1   
    17     6     7 1   
    18     7     8 1   
    19     8     9 1   
    20     8     9 1   
    21     8    19 1   
    22     9    20 1   
@<TRIPOS>SUBSTRUCTURE
     1 MOL         1 TEMP              0 ****  ****    0 ROOT
