@<TRIPOS>MOLECULE
MOL
   20    22     1     0     0
SMALL
No Charge or Current Charge


@<TRIPOS>ATOM
      1 C1          -2.0010     0.7710    -1.1840 c3         1 MOL       0.000000
      2 C2          -2.3400    -0.7080    -0.9930 c3         1 MOL       0.000000
      3 C3          -1.5110    -1.4640     0.0540 c3         1 MOL       0.000000
      4 C4           0.0010    -1.5270    -0.1740 c3         1 MOL       0.000000
      5 N1           0.7090    -0.2930     0.1420 n3         1 MOL       0.000000
      6 N2           0.5490     0.2920     1.3100 n3         1 MOL       0.000000
      7 N3           1.3190     1.3010     1.3690 n3         1 MOL       0.000000
      8 C5           2.0190     1.3870     0.2170 c3         1 MOL       0.000000
      9 C6           1.6350     0.3560    -0.5800 c3         1 MOL       0.000000
     10 H1          -2.7270     1.2370    -1.8440 hc         1 MOL       0.000000
     11 H2          -1.0230     0.9130    -1.6270 hc         1 MOL       0.000000
     12 H3          -2.0160     1.3070    -0.2410 hc         1 MOL       0.000000
     13 H4          -3.3830    -0.7970    -0.7030 hc         1 MOL       0.000000
     14 H5          -2.2520    -1.2190    -1.9510 hc         1 MOL       0.000000
     15 H6          -1.6900    -1.0520     1.0400 hc         1 MOL       0.000000
     16 H7          -1.8600    -2.4930     0.0820 hc         1 MOL       0.000000
     17 H8           0.4240    -2.3120     0.4390 h1         1 MOL       0.000000
     18 H9           0.2280    -1.7590    -1.2070 h1         1 MOL       0.000000
     19 H10          2.7310     2.1640     0.0440 h1         1 MOL       0.000000
     20 H11          1.9270     0.0470    -1.5600 h1         1 MOL       0.000000
@<TRIPOS>BOND
     1     1     2 1   
     2     1    10 1   
     3     1    11 1   
     4     1    12 1   
     5     2     3 1   
     6     2    13 1   
     7     2    14 1   
     8     3     4 1   
     9     3    15 1   
    10     3    16 1   
    11     4     5 1   
    12     4    17 1   
    13     4    18 1   
    14     5     6 1   
    15     5     9 1   
    16     6     7 1   
    17     6     7 1   
    18     7     8 1   
    19     8     9 1   
    20     8     9 1   
    21     8    19 1   
    22     9    20 1   
@<TRIPOS>SUBSTRUCTURE
     1 MOL         1 TEMP              0 ****  ****    0 ROOT
