@<TRIPOS>MOLECULE								
MOL								
20	20	1	0	0				
SMALL								
No	Charge	or	Current	Charge				
@<TRIPOS>ATOM								
1	C1	-1.7610	0.5340	-1.8080	c3	1	MOL	-0.0574796410713743
2	C2	-2.3460	-0.5740	-0.9280	c3	1	MOL	0.0502276851611604
3	C3	-1.3590	-1.5650	-0.2510	c3	1	MOL	0.029434866161889
4	C4	0.1400	-1.3830	-0.4930	c3	1	MOL	-0.1367489029942565
5	N1	0.7040	-0.2070	0.1580	na	1	MOL	0.3986932518358891
6	N2	0.4100	0.0800	1.4090	nc	1	MOL	-0.2502196049522864
7	N3	1.0820	1.0990	1.7620	nd	1	MOL	-0.3193359951280445
8	C5	1.8520	1.4970	0.7270	cd	1	MOL	0.1155272094562996
9	C6	1.6190	0.6550	-0.3140	cc	1	MOL	-0.3665531218424377
10	H1	-2.5680	1.1160	-2.2410	hc	1	MOL	0.0130890605865177
11	H2	-1.1760	0.1370	-2.6330	hc	1	MOL	0.0130890605865177
12	H3	-1.1350	1.2140	-1.2440	hc	1	MOL	0.0130890605865177
13	H4	-2.9400	-0.1010	-0.1520	hc	1	MOL	-0.0014480429946745
14	H5	-3.0470	-1.1480	-1.5270	hc	1	MOL	-0.0014480429946745
15	H6	-1.5210	-1.5710	0.8180	hc	1	MOL	0.013903235081947
16	H7	-1.5830	-2.5710	-0.5940	hc	1	MOL	0.013903235081947
17	H8	0.6620	-2.2540	-0.1150	h1	1	MOL	0.0718422229084886
18	H9	0.3680	-1.2970	-1.5450	h1	1	MOL	0.0718422229084886
19	H10	2.5030	2.3410	0.7970	h4	1	MOL	0.1170117401835705
20	H11	2.0040	0.6040	-1.3090	h4	1	MOL	0.2115805014385151
@<TRIPOS>BOND								
1	1	2	1					
2	1	10	1					
3	1	11	1					
4	1	12	1					
5	2	3	1					
6	2	13	1					
7	2	14	1					
8	3	4	1					
9	3	15	1					
10	3	16	1					
11	4	5	1					
12	4	17	1					
13	4	18	1					
14	5	6	1					
15	5	9	1					
16	6	7	2					
17	7	8	1					
18	8	9	2					
19	8	19	1					
20	9	20	1					
@<TRIPOS>SUBSTRUCTURE								
1	MOL	1	TEMP	0	****	****	0	ROOT
