@<TRIPOS>MOLECULE								
MOL								
20	20	1	0	0				
SMALL								
No	Charge	or	Current	Charge				
@<TRIPOS>ATOM								
1	C1	-1.8890	0.7140	-1.3430	c3	1	MOL	-0.0574796410713743
2	C2	-2.3830	-0.6790	-0.9470	c3	1	MOL	0.0502276851611604
3	C3	-1.4590	-1.5190	-0.0470	c3	1	MOL	0.029434866161889
4	C4	0.0420	-1.4720	-0.3400	c3	1	MOL	-0.1367489029942565
5	N1	0.7020	-0.2570	0.1200	na	1	MOL	0.3986932518358891
6	N2	0.5170	0.1890	1.3450	nc	1	MOL	-0.2502196049522864
7	N3	1.2560	1.2080	1.5240	nd	1	MOL	-0.3193359951280445
8	C5	1.9620	1.4410	0.3970	cd	1	MOL	0.1155272094562996
9	C6	1.6150	0.4960	-0.5150	cc	1	MOL	-0.3665531218424377
10	H1	-2.6560	1.2270	-1.9140	hc	1	MOL	0.0130890605865177
11	H2	-1.0030	0.6660	-1.9660	hc	1	MOL	0.0130890605865177
12	H3	-1.6550	1.3230	-0.4770	hc	1	MOL	0.0130890605865177
13	H4	-3.3410	-0.5900	-0.4440	hc	1	MOL	-0.0014480429946745
14	H5	-2.5770	-1.2370	-1.8610	hc	1	MOL	-0.0014480429946745
15	H6	-1.5960	-1.2350	0.9900	hc	1	MOL	0.013903235081947
16	H7	-1.7620	-2.5590	-0.1200	hc	1	MOL	0.013903235081947
17	H8	0.5260	-2.3110	0.1450	h1	1	MOL	0.0718422229084886
18	H9	0.2410	-1.5510	-1.4010	h1	1	MOL	0.0718422229084886
19	H10	2.6520	2.2530	0.3180	h4	1	MOL	0.1170117401835705
20	H11	1.9220	0.3070	-1.5200	h4	1	MOL	0.2115805014385151
@<TRIPOS>BOND								
1	1	2	1					
2	1	10	1					
3	1	11	1					
4	1	12	1					
5	2	3	1					
6	2	13	1					
7	2	14	1					
8	3	4	1					
9	3	15	1					
10	3	16	1					
11	4	5	1					
12	4	17	1					
13	4	18	1					
14	5	6	1					
15	5	9	1					
16	6	7	2					
17	7	8	1					
18	8	9	2					
19	8	19	1					
20	9	20	1					
@<TRIPOS>SUBSTRUCTURE								
1	MOL	1	TEMP	0	****	****	0	ROOT
