@<TRIPOS>MOLECULE								
MOL								
20	20	1	0	0				
SMALL								
No	Charge	or	Current	Charge				
@<TRIPOS>ATOM								
1	C1	-1.7380	0.5640	-1.6900	c3	1	MOL	-0.0574796410713743
2	C2	-2.3490	-0.6140	-0.9260	c3	1	MOL	0.0502276851611604
3	C3	-1.3890	-1.5710	-0.1670	c3	1	MOL	0.029434866161889
4	C4	0.1160	-1.4390	-0.4040	c3	1	MOL	-0.1367489029942565
5	N1	0.7010	-0.2290	0.1590	na	1	MOL	0.3986932518358891
6	N2	0.4050	0.1590	1.3820	nc	1	MOL	-0.2502196049522864
7	N3	1.0920	1.1910	1.6590	nd	1	MOL	-0.3193359951280445
8	C5	1.8740	1.4950	0.6000	cd	1	MOL	0.1155272094562996
9	C6	1.6310	0.5790	-0.3730	cc	1	MOL	-0.3665531218424377
10	H1	-2.5240	1.1080	-2.2040	hc	1	MOL	0.0130890605865177
11	H2	-1.0300	0.2390	-2.4460	hc	1	MOL	0.0130890605865177
12	H3	-1.2340	1.2610	-1.0320	hc	1	MOL	0.0130890605865177
13	H4	-3.0690	-0.2220	-0.2160	hc	1	MOL	-0.0014480429946745
14	H5	-2.9240	-1.2030	-1.6350	hc	1	MOL	-0.0014480429946745
15	H6	-1.5530	-1.4830	0.8990	hc	1	MOL	0.013903235081947
16	H7	-1.6400	-2.5960	-0.4250	hc	1	MOL	0.013903235081947
17	H8	0.6150	-2.2890	0.0450	h1	1	MOL	0.0718422229084886
18	H9	0.3580	-1.4400	-1.4580	h1	1	MOL	0.0718422229084886
19	H10	2.5380	2.3320	0.6090	h4	1	MOL	0.1170117401835705
20	H11	2.0190	0.4450	-1.3590	h4	1	MOL	0.2115805014385151
@<TRIPOS>BOND								
1	1	2	1					
2	1	10	1					
3	1	11	1					
4	1	12	1					
5	2	3	1					
6	2	13	1					
7	2	14	1					
8	3	4	1					
9	3	15	1					
10	3	16	1					
11	4	5	1					
12	4	17	1					
13	4	18	1					
14	5	6	1					
15	5	9	1					
16	6	7	2					
17	7	8	1					
18	8	9	2					
19	8	19	1					
20	9	20	1					
@<TRIPOS>SUBSTRUCTURE								
1	MOL	1	TEMP	0	****	****	0	ROOT
