@<TRIPOS>MOLECULE
MOL
   20    22     1     0     0
SMALL
No Charge or Current Charge


@<TRIPOS>ATOM
      1 C1          -2.0350     0.5890    -2.7580 c3         1 MOL       0.000000
      2 C2          -1.8980     0.2960    -1.2630 c3         1 MOL       0.000000
      3 C3          -1.2400    -1.0600    -0.9630 c3         1 MOL       0.000000
      4 C4           0.2840    -1.0120    -0.8400 c3         1 MOL       0.000000
      5 N1           0.7360    -0.2500     0.3140 n3         1 MOL       0.000000
      6 N2           0.5030    -0.6940     1.5320 n3         1 MOL       0.000000
      7 N3           0.9940     0.1300     2.3650 n3         1 MOL       0.000000
      8 C5           1.5730     1.1460     1.6890 c3         1 MOL       0.000000
      9 C6           1.4120     0.9090     0.3620 c3         1 MOL       0.000000
     10 H1          -2.4840     1.5630    -2.9260 hc         1 MOL       0.000000
     11 H2          -2.6620    -0.1540    -3.2410 hc         1 MOL       0.000000
     12 H3          -1.0720     0.5830    -3.2620 hc         1 MOL       0.000000
     13 H4          -1.3450     1.0930    -0.7750 hc         1 MOL       0.000000
     14 H5          -2.8880     0.3110    -0.8180 hc         1 MOL       0.000000
     15 H6          -1.6280    -1.4690    -0.0380 hc         1 MOL       0.000000
     16 H7          -1.4860    -1.7720    -1.7460 hc         1 MOL       0.000000
     17 H8           0.6840    -2.0130    -0.7460 h1         1 MOL       0.000000
     18 H9           0.7370    -0.5570    -1.7120 h1         1 MOL       0.000000
     19 H10          2.0550     1.9580     2.1900 h1         1 MOL       0.000000
     20 H11          1.7100     1.4410    -0.5150 h1         1 MOL       0.000000
@<TRIPOS>BOND
     1     1     2 1   
     2     1    10 1   
     3     1    11 1   
     4     1    12 1   
     5     2     3 1   
     6     2    13 1   
     7     2    14 1   
     8     3     4 1   
     9     3    15 1   
    10     3    16 1   
    11     4     5 1   
    12     4    17 1   
    13     4    18 1   
    14     5     6 1   
    15     5     9 1   
    16     6     7 1   
    17     6     7 1   
    18     7     8 1   
    19     8     9 1   
    20     8     9 1   
    21     8    19 1   
    22     9    20 1   
@<TRIPOS>SUBSTRUCTURE
     1 MOL         1 TEMP              0 ****  ****    0 ROOT
