@<TRIPOS>MOLECULE
MOL
   20    22     1     0     0
SMALL
No Charge or Current Charge


@<TRIPOS>ATOM
      1 C1          -2.2070     0.9080    -1.0580 c3         1 MOL       0.000000
      2 C2          -2.0460    -0.6130    -1.1090 c3         1 MOL       0.000000
      3 C3          -1.6550    -1.2460     0.2410 c3         1 MOL       0.000000
      4 C4          -0.1700    -1.5730     0.3880 c3         1 MOL       0.000000
      5 N1           0.6920    -0.4050     0.3040 n3         1 MOL       0.000000
      6 N2           0.6900     0.4890     1.2710 n3         1 MOL       0.000000
      7 N3           1.4990     1.4200     0.9660 n3         1 MOL       0.000000
      8 C5           2.0590     1.1410    -0.2310 c3         1 MOL       0.000000
      9 C6           1.5440    -0.0390    -0.6670 c3         1 MOL       0.000000
     10 H1          -2.4770     1.3000    -2.0340 hc         1 MOL       0.000000
     11 H2          -1.2960     1.4010    -0.7400 hc         1 MOL       0.000000
     12 H3          -2.9920     1.1860    -0.3620 hc         1 MOL       0.000000
     13 H4          -2.9860    -1.0450    -1.4400 hc         1 MOL       0.000000
     14 H5          -1.3150    -0.8790    -1.8690 hc         1 MOL       0.000000
     15 H6          -1.9550    -0.6030     1.0610 hc         1 MOL       0.000000
     16 H7          -2.1850    -2.1850     0.3750 hc         1 MOL       0.000000
     17 H8           0.0180    -2.0470     1.3430 h1         1 MOL       0.000000
     18 H9           0.1490    -2.2540    -0.3900 h1         1 MOL       0.000000
     19 H10          2.7770     1.7880    -0.6850 h1         1 MOL       0.000000
     20 H11          1.7060    -0.6230    -1.5460 h1         1 MOL       0.000000
@<TRIPOS>BOND
     1     1     2 1   
     2     1    10 1   
     3     1    11 1   
     4     1    12 1   
     5     2     3 1   
     6     2    13 1   
     7     2    14 1   
     8     3     4 1   
     9     3    15 1   
    10     3    16 1   
    11     4     5 1   
    12     4    17 1   
    13     4    18 1   
    14     5     6 1   
    15     5     9 1   
    16     6     7 1   
    17     6     7 1   
    18     7     8 1   
    19     8     9 1   
    20     8     9 1   
    21     8    19 1   
    22     9    20 1   
@<TRIPOS>SUBSTRUCTURE
     1 MOL         1 TEMP              0 ****  ****    0 ROOT
