@<TRIPOS>MOLECULE
MOL
   20    22     1     0     0
SMALL
No Charge or Current Charge


@<TRIPOS>ATOM
      1 C1          -1.7730     0.5790    -1.5570 c3         1 MOL       0.000000
      2 C2          -2.3550    -0.7060    -0.9640 c3         1 MOL       0.000000
      3 C3          -1.4510    -1.5290    -0.0200 c3         1 MOL       0.000000
      4 C4           0.0600    -1.4850    -0.2550 c3         1 MOL       0.000000
      5 N1           0.6930    -0.2440     0.1710 n3         1 MOL       0.000000
      6 N2           0.4460     0.2660     1.3600 n3         1 MOL       0.000000
      7 N3           1.1710     1.2980     1.5190 n3         1 MOL       0.000000
      8 C5           1.9280     1.4770     0.4150 c3         1 MOL       0.000000
      9 C6           1.6300     0.4820    -0.4590 c3         1 MOL       0.000000
     10 H1          -2.5180     1.0620    -2.1820 hc         1 MOL       0.000000
     11 H2          -0.9090     0.3800    -2.1830 hc         1 MOL       0.000000
     12 H3          -1.4760     1.2860    -0.7900 hc         1 MOL       0.000000
     13 H4          -3.2690    -0.4700    -0.4290 hc         1 MOL       0.000000
     14 H5          -2.6530    -1.3430    -1.7940 hc         1 MOL       0.000000
     15 H6          -1.6200    -1.2260     1.0060 hc         1 MOL       0.000000
     16 H7          -1.7470    -2.5720    -0.0800 hc         1 MOL       0.000000
     17 H8           0.5260    -2.2960     0.2910 h1         1 MOL       0.000000
     18 H9           0.3060    -1.6160    -1.3020 h1         1 MOL       0.000000
     19 H10          2.6160     2.2890     0.3260 h1         1 MOL       0.000000
     20 H11          1.9850     0.2430    -1.4380 h1         1 MOL       0.000000
@<TRIPOS>BOND
     1     1     2 1   
     2     1    10 1   
     3     1    11 1   
     4     1    12 1   
     5     2     3 1   
     6     2    13 1   
     7     2    14 1   
     8     3     4 1   
     9     3    15 1   
    10     3    16 1   
    11     4     5 1   
    12     4    17 1   
    13     4    18 1   
    14     5     6 1   
    15     5     9 1   
    16     6     7 1   
    17     6     7 1   
    18     7     8 1   
    19     8     9 1   
    20     8     9 1   
    21     8    19 1   
    22     9    20 1   
@<TRIPOS>SUBSTRUCTURE
     1 MOL         1 TEMP              0 ****  ****    0 ROOT
