@<TRIPOS>MOLECULE
MOL
   20    22     1     0     0
SMALL
No Charge or Current Charge


@<TRIPOS>ATOM
      1 C1          -3.0720     1.1140    -1.0350 c3         1 MOL       0.000000
      2 C2          -2.0410    -0.0140    -1.0650 c3         1 MOL       0.000000
      3 C3          -1.7780    -0.6080     0.3240 c3         1 MOL       0.000000
      4 C4          -0.4590    -1.3720     0.4390 c3         1 MOL       0.000000
      5 N1           0.7090    -0.5170     0.2970 n3         1 MOL       0.000000
      6 N2           0.9780     0.3940     1.2090 n3         1 MOL       0.000000
      7 N3           2.0400     1.0060     0.8730 n3         1 MOL       0.000000
      8 C5           2.4980     0.4860    -0.2860 c3         1 MOL       0.000000
      9 C6           1.6450    -0.5010    -0.6660 c3         1 MOL       0.000000
     10 H1          -3.2620     1.4960    -2.0320 hc         1 MOL       0.000000
     11 H2          -2.7230     1.9390    -0.4220 hc         1 MOL       0.000000
     12 H3          -4.0200     0.7740    -0.6250 hc         1 MOL       0.000000
     13 H4          -2.3650    -0.8020    -1.7420 hc         1 MOL       0.000000
     14 H5          -1.1160     0.3830    -1.4730 hc         1 MOL       0.000000
     15 H6          -1.7680     0.1800     1.0690 hc         1 MOL       0.000000
     16 H7          -2.5850    -1.2840     0.5960 hc         1 MOL       0.000000
     17 H8          -0.3900    -1.8600     1.4020 h1         1 MOL       0.000000
     18 H9          -0.3830    -2.1350    -0.3260 h1         1 MOL       0.000000
     19 H10          3.3870     0.8470    -0.7560 h1         1 MOL       0.000000
     20 H11          1.6260    -1.1640    -1.5020 h1         1 MOL       0.000000
@<TRIPOS>BOND
     1     1     2 1   
     2     1    10 1   
     3     1    11 1   
     4     1    12 1   
     5     2     3 1   
     6     2    13 1   
     7     2    14 1   
     8     3     4 1   
     9     3    15 1   
    10     3    16 1   
    11     4     5 1   
    12     4    17 1   
    13     4    18 1   
    14     5     6 1   
    15     5     9 1   
    16     6     7 1   
    17     6     7 1   
    18     7     8 1   
    19     8     9 1   
    20     8     9 1   
    21     8    19 1   
    22     9    20 1   
@<TRIPOS>SUBSTRUCTURE
     1 MOL         1 TEMP              0 ****  ****    0 ROOT
