@<TRIPOS>MOLECULE								
MOL								
20	20	1	0	0				
SMALL								
No	Charge	or	Current	Charge				
@<TRIPOS>ATOM								
1	C1	-1.7400	0.5420	-1.9400	c3	1	MOL	-0.0574796410713743
2	C2	-2.3240	-0.4830	-0.9650	c3	1	MOL	0.0502276851611604
3	C3	-1.3530	-1.5290	-0.3570	c3	1	MOL	0.029434866161889
4	C4	0.1470	-1.3320	-0.5690	c3	1	MOL	-0.1367489029942565
5	N1	0.7000	-0.2020	0.1700	na	1	MOL	0.3986932518358891
6	N2	0.3950	-0.0090	1.4360	nc	1	MOL	-0.2502196049522864
7	N3	1.0610	0.9820	1.8700	nd	1	MOL	-0.3193359951280445
8	C5	1.8370	1.4590	0.8730	cd	1	MOL	0.1155272094562996
9	C6	1.6150	0.6970	-0.2290	cc	1	MOL	-0.3665531218424377
10	H1	-2.5320	1.1870	-2.3070	hc	1	MOL	0.0130890605865177
11	H2	-1.2840	0.0720	-2.8080	hc	1	MOL	0.0130890605865177
12	H3	-0.9990	1.1740	-1.4670	hc	1	MOL	0.0130890605865177
13	H4	-2.7850	0.0680	-0.1520	hc	1	MOL	-0.0014480429946745
14	H5	-3.1320	-1.0150	-1.4570	hc	1	MOL	-0.0014480429946745
15	H6	-1.5370	-1.6290	0.7040	hc	1	MOL	0.013903235081947
16	H7	-1.5690	-2.5010	-0.7930	hc	1	MOL	0.013903235081947
17	H8	0.6690	-2.2250	-0.2480	h1	1	MOL	0.0718422229084886
18	H9	0.3850	-1.1700	-1.6100	h1	1	MOL	0.0718422229084886
19	H10	2.4830	2.2980	1.0110	h4	1	MOL	0.1170117401835705
20	H11	2.0090	0.7200	-1.2210	h4	1	MOL	0.2115805014385151
@<TRIPOS>BOND								
1	1	2	1					
2	1	10	1					
3	1	11	1					
4	1	12	1					
5	2	3	1					
6	2	13	1					
7	2	14	1					
8	3	4	1					
9	3	15	1					
10	3	16	1					
11	4	5	1					
12	4	17	1					
13	4	18	1					
14	5	6	1					
15	5	9	1					
16	6	7	2					
17	7	8	1					
18	8	9	2					
19	8	19	1					
20	9	20	1					
@<TRIPOS>SUBSTRUCTURE								
1	MOL	1	TEMP	0	****	****	0	ROOT
