@<TRIPOS>MOLECULE
MOL
   20    22     1     0     0
SMALL
No Charge or Current Charge


@<TRIPOS>ATOM
      1 C1          -1.9820     0.7380    -1.2440 c3         1 MOL       0.000000
      2 C2          -2.2510    -0.7550    -1.0380 c3         1 MOL       0.000000
      3 C3          -1.5680    -1.4000     0.1750 c3         1 MOL       0.000000
      4 C4          -0.0490    -1.5630     0.1010 c3         1 MOL       0.000000
      5 N1           0.6980    -0.3200     0.2280 n3         1 MOL       0.000000
      6 N2           0.5250     0.4600     1.2730 n3         1 MOL       0.000000
      7 N3           1.3120     1.4540     1.1750 n3         1 MOL       0.000000
      8 C5           2.0420     1.3250     0.0470 c3         1 MOL       0.000000
      9 C6           1.6540     0.1790    -0.5720 c3         1 MOL       0.000000
     10 H1          -2.6070     1.1230    -2.0440 hc         1 MOL       0.000000
     11 H2          -0.9520     0.9400    -1.5080 hc         1 MOL       0.000000
     12 H3          -2.2070     1.3030    -0.3450 hc         1 MOL       0.000000
     13 H4          -3.3210    -0.8980    -0.9180 hc         1 MOL       0.000000
     14 H5          -1.9760    -1.3030    -1.9390 hc         1 MOL       0.000000
     15 H6          -1.8160    -0.8540     1.0780 hc         1 MOL       0.000000
     16 H7          -1.9700    -2.4030     0.2980 hc         1 MOL       0.000000
     17 H8           0.2820    -2.2250     0.8910 h1         1 MOL       0.000000
     18 H9           0.2440    -2.0060    -0.8430 h1         1 MOL       0.000000
     19 H10          2.7770     2.0460    -0.2380 h1         1 MOL       0.000000
     20 H11          1.9620    -0.3010    -1.4750 h1         1 MOL       0.000000
@<TRIPOS>BOND
     1     1     2 1   
     2     1    10 1   
     3     1    11 1   
     4     1    12 1   
     5     2     3 1   
     6     2    13 1   
     7     2    14 1   
     8     3     4 1   
     9     3    15 1   
    10     3    16 1   
    11     4     5 1   
    12     4    17 1   
    13     4    18 1   
    14     5     6 1   
    15     5     9 1   
    16     6     7 1   
    17     6     7 1   
    18     7     8 1   
    19     8     9 1   
    20     8     9 1   
    21     8    19 1   
    22     9    20 1   
@<TRIPOS>SUBSTRUCTURE
     1 MOL         1 TEMP              0 ****  ****    0 ROOT
