@<TRIPOS>MOLECULE
MOL
   20    22     1     0     0
SMALL
No Charge or Current Charge


@<TRIPOS>ATOM
      1 C1          -2.2050     0.9580    -2.8230 c3         1 MOL       0.000000
      2 C2          -1.3460     0.7290    -1.5790 c3         1 MOL       0.000000
      3 C3          -0.8960    -0.7350    -1.4230 c3         1 MOL       0.000000
      4 C4           0.5390    -0.9030    -0.9310 c3         1 MOL       0.000000
      5 N1           0.7510    -0.3550     0.4010 n3         1 MOL       0.000000
      6 N2           0.2010    -0.9350     1.4470 n3         1 MOL       0.000000
      7 N3           0.5160    -0.2790     2.4880 n3         1 MOL       0.000000
      8 C5           1.2880     0.7690     2.1300 c3         1 MOL       0.000000
      9 C6           1.4480     0.7270     0.7810 c3         1 MOL       0.000000
     10 H1          -2.5260     1.9920    -2.8920 hc         1 MOL       0.000000
     11 H2          -3.0950     0.3350    -2.8090 hc         1 MOL       0.000000
     12 H3          -1.6500     0.7200    -3.7270 hc         1 MOL       0.000000
     13 H4          -0.4730     1.3740    -1.6510 hc         1 MOL       0.000000
     14 H5          -1.8800     1.0480    -0.6910 hc         1 MOL       0.000000
     15 H6          -1.5640    -1.2740    -0.7620 hc         1 MOL       0.000000
     16 H7          -0.9440    -1.2360    -2.3870 hc         1 MOL       0.000000
     17 H8           0.8080    -1.9500    -0.8970 h1         1 MOL       0.000000
     18 H9           1.2320    -0.3990    -1.5920 h1         1 MOL       0.000000
     19 H10          1.6710     1.4620     2.8470 h1         1 MOL       0.000000
     20 H11          1.9790     1.3460     0.0920 h1         1 MOL       0.000000
@<TRIPOS>BOND
     1     1     2 1   
     2     1    10 1   
     3     1    11 1   
     4     1    12 1   
     5     2     3 1   
     6     2    13 1   
     7     2    14 1   
     8     3     4 1   
     9     3    15 1   
    10     3    16 1   
    11     4     5 1   
    12     4    17 1   
    13     4    18 1   
    14     5     6 1   
    15     5     9 1   
    16     6     7 1   
    17     6     7 1   
    18     7     8 1   
    19     8     9 1   
    20     8     9 1   
    21     8    19 1   
    22     9    20 1   
@<TRIPOS>SUBSTRUCTURE
     1 MOL         1 TEMP              0 ****  ****    0 ROOT
