@<TRIPOS>MOLECULE
MOL
   20    22     1     0     0
SMALL
No Charge or Current Charge


@<TRIPOS>ATOM
      1 C1          -2.0910     0.8670    -2.8990 c3         1 MOL       0.000000
      2 C2          -1.5490     0.6140    -1.4920 c3         1 MOL       0.000000
      3 C3          -1.0200    -0.8240    -1.2950 c3         1 MOL       0.000000
      4 C4           0.4560    -0.9070    -0.9140 c3         1 MOL       0.000000
      5 N1           0.7400    -0.3170     0.3860 n3         1 MOL       0.000000
      6 N2           0.2480    -0.8610     1.4800 n3         1 MOL       0.000000
      7 N3           0.6370    -0.1820     2.4810 n3         1 MOL       0.000000
      8 C5           1.4020     0.8430     2.0470 c3         1 MOL       0.000000
      9 C6           1.4790     0.7610     0.6930 c3         1 MOL       0.000000
     10 H1          -2.4470     1.8870    -3.0040 hc         1 MOL       0.000000
     11 H2          -2.9180     0.2020    -3.1270 hc         1 MOL       0.000000
     12 H3          -1.3220     0.7060    -3.6510 hc         1 MOL       0.000000
     13 H4          -0.7600     1.3320    -1.2850 hc         1 MOL       0.000000
     14 H5          -2.3280     0.8200    -0.7660 hc         1 MOL       0.000000
     15 H6          -1.5940    -1.3440    -0.5380 hc         1 MOL       0.000000
     16 H7          -1.1380    -1.3920    -2.2140 hc         1 MOL       0.000000
     17 H8           0.7800    -1.9390    -0.8830 h1         1 MOL       0.000000
     18 H9           1.0710    -0.3850    -1.6360 h1         1 MOL       0.000000
     19 H10          1.8390     1.5480     2.7200 h1         1 MOL       0.000000
     20 H11          1.9770     1.3510    -0.0450 h1         1 MOL       0.000000
@<TRIPOS>BOND
     1     1     2 1   
     2     1    10 1   
     3     1    11 1   
     4     1    12 1   
     5     2     3 1   
     6     2    13 1   
     7     2    14 1   
     8     3     4 1   
     9     3    15 1   
    10     3    16 1   
    11     4     5 1   
    12     4    17 1   
    13     4    18 1   
    14     5     6 1   
    15     5     9 1   
    16     6     7 1   
    17     6     7 1   
    18     7     8 1   
    19     8     9 1   
    20     8     9 1   
    21     8    19 1   
    22     9    20 1   
@<TRIPOS>SUBSTRUCTURE
     1 MOL         1 TEMP              0 ****  ****    0 ROOT
