@<TRIPOS>MOLECULE								
MOL								
20	20	1	0	0				
SMALL								
No	Charge	or	Current	Charge				
@<TRIPOS>ATOM								
1	C1	-1.8050	0.6610	-1.4860	c3	1	MOL	-0.0574796410713743
2	C2	-2.3330	-0.7070	-1.0520	c3	1	MOL	0.0502276851611604
3	C3	-1.4700	-1.5060	-0.0580	c3	1	MOL	0.029434866161889
4	C4	0.0460	-1.4860	-0.2660	c3	1	MOL	-0.1367489029942565
5	N1	0.6920	-0.2550	0.1730	na	1	MOL	0.3986932518358891
6	N2	0.4470	0.2460	1.3660	nc	1	MOL	-0.2502196049522864
7	N3	1.1820	1.2690	1.5370	nd	1	MOL	-0.3193359951280445
8	C5	1.9510	1.4440	0.4410	cd	1	MOL	0.1155272094562996
9	C6	1.6430	0.4620	-0.4450	cc	1	MOL	-0.3665531218424377
10	H1	-2.5320	1.1500	-2.1260	hc	1	MOL	0.0130890605865177
11	H2	-0.8840	0.5760	-2.0530	hc	1	MOL	0.0130890605865177
12	H3	-1.6160	1.3120	-0.6400	hc	1	MOL	0.0130890605865177
13	H4	-3.3190	-0.5900	-0.6120	hc	1	MOL	-0.0014480429946745
14	H5	-2.4770	-1.3090	-1.9470	hc	1	MOL	-0.0014480429946745
15	H6	-1.6620	-1.1670	0.9530	hc	1	MOL	0.013903235081947
16	H7	-1.7800	-2.5460	-0.0940	hc	1	MOL	0.013903235081947
17	H8	0.4920	-2.3040	0.2860	h1	1	MOL	0.0718422229084886
18	H9	0.3050	-1.6170	-1.3090	h1	1	MOL	0.0718422229084886
19	H10	2.6510	2.2470	0.3630	h4	1	MOL	0.1170117401835705
20	H11	2.0020	0.2260	-1.4230	h4	1	MOL	0.2115805014385151
@<TRIPOS>BOND								
1	1	2	1					
2	1	10	1					
3	1	11	1					
4	1	12	1					
5	2	3	1					
6	2	13	1					
7	2	14	1					
8	3	4	1					
9	3	15	1					
10	3	16	1					
11	4	5	1					
12	4	17	1					
13	4	18	1					
14	5	6	1					
15	5	9	1					
16	6	7	2					
17	7	8	1					
18	8	9	2					
19	8	19	1					
20	9	20	1					
@<TRIPOS>SUBSTRUCTURE								
1	MOL	1	TEMP	0	****	****	0	ROOT
