@<TRIPOS>MOLECULE								
MOL								
20	20	1	0	0				
SMALL								
No	Charge	or	Current	Charge				
@<TRIPOS>ATOM								
1	C1	-2.2360	0.9890	-0.9030	c3	1	MOL	-0.0574796410713743
2	C2	-2.1050	-0.5300	-1.0330	c3	1	MOL	0.0502276851611604
3	C3	-1.6620	-1.2330	0.2650	c3	1	MOL	0.029434866161889
4	C4	-0.1770	-1.5890	0.3240	c3	1	MOL	-0.1367489029942565
5	N1	0.6990	-0.4290	0.2510	na	1	MOL	0.3986932518358891
6	N2	0.7540	0.4220	1.2540	nc	1	MOL	-0.2502196049522864
7	N3	1.5630	1.3550	0.9520	nd	1	MOL	-0.3193359951280445
8	C5	2.0640	1.1190	-0.2800	cd	1	MOL	0.1155272094562996
9	C6	1.5100	-0.0330	-0.7420	cc	1	MOL	-0.3665531218424377
10	H1	-2.5440	1.4320	-1.8450	hc	1	MOL	0.0130890605865177
11	H2	-1.3020	1.4520	-0.6050	hc	1	MOL	0.0130890605865177
12	H3	-2.9830	1.2450	-0.1570	hc	1	MOL	0.0130890605865177
13	H4	-3.0670	-0.9320	-1.3380	hc	1	MOL	-0.0014480429946745
14	H5	-1.4160	-0.7710	-1.8400	hc	1	MOL	-0.0014480429946745
15	H6	-1.9110	-0.6260	1.1280	hc	1	MOL	0.013903235081947
16	H7	-2.2000	-2.1700	0.3800	hc	1	MOL	0.013903235081947
17	H8	0.0490	-2.1080	1.2460	h1	1	MOL	0.0718422229084886
18	H9	0.0920	-2.2370	-0.4990	h1	1	MOL	0.0718422229084886
19	H10	2.7730	1.7740	-0.7380	h4	1	MOL	0.1170117401835705
20	H11	1.6230	-0.5810	-1.6520	h4	1	MOL	0.2115805014385151
@<TRIPOS>BOND								
1	1	2	1					
2	1	10	1					
3	1	11	1					
4	1	12	1					
5	2	3	1					
6	2	13	1					
7	2	14	1					
8	3	4	1					
9	3	15	1					
10	3	16	1					
11	4	5	1					
12	4	17	1					
13	4	18	1					
14	5	6	1					
15	5	9	1					
16	6	7	2					
17	7	8	1					
18	8	9	2					
19	8	19	1					
20	9	20	1					
@<TRIPOS>SUBSTRUCTURE								
1	MOL	1	TEMP	0	****	****	0	ROOT
