@<TRIPOS>MOLECULE
MOL
   20    22     1     0     0
SMALL
No Charge or Current Charge


@<TRIPOS>ATOM
      1 C1          -2.1060     0.9260    -2.8690 c3         1 MOL       0.000000
      2 C2          -1.5560     0.6450    -1.4700 c3         1 MOL       0.000000
      3 C3          -1.0320    -0.7980    -1.3020 c3         1 MOL       0.000000
      4 C4           0.4470    -0.8940    -0.9320 c3         1 MOL       0.000000
      5 N1           0.7410    -0.3270     0.3750 n3         1 MOL       0.000000
      6 N2           0.2600    -0.8900     1.4640 n3         1 MOL       0.000000
      7 N3           0.6520    -0.2260     2.4730 n3         1 MOL       0.000000
      8 C5           1.4170     0.8040     2.0510 c3         1 MOL       0.000000
      9 C6           1.4830     0.7450     0.6950 c3         1 MOL       0.000000
     10 H1          -2.4630     1.9480    -2.9520 hc         1 MOL       0.000000
     11 H2          -2.9350     0.2650    -3.1050 hc         1 MOL       0.000000
     12 H3          -1.3420     0.7790    -3.6290 hc         1 MOL       0.000000
     13 H4          -0.7620     1.3560    -1.2560 hc         1 MOL       0.000000
     14 H5          -2.3290     0.8410    -0.7350 hc         1 MOL       0.000000
     15 H6          -1.6030    -1.3290    -0.5510 hc         1 MOL       0.000000
     16 H7          -1.1580    -1.3500    -2.2300 hc         1 MOL       0.000000
     17 H8           0.7660    -1.9280    -0.9200 h1         1 MOL       0.000000
     18 H9           1.0600    -0.3640    -1.6500 h1         1 MOL       0.000000
     19 H10          1.8590     1.4980     2.7320 h1         1 MOL       0.000000
     20 H11          1.9750     1.3480    -0.0360 h1         1 MOL       0.000000
@<TRIPOS>BOND
     1     1     2 1   
     2     1    10 1   
     3     1    11 1   
     4     1    12 1   
     5     2     3 1   
     6     2    13 1   
     7     2    14 1   
     8     3     4 1   
     9     3    15 1   
    10     3    16 1   
    11     4     5 1   
    12     4    17 1   
    13     4    18 1   
    14     5     6 1   
    15     5     9 1   
    16     6     7 1   
    17     6     7 1   
    18     7     8 1   
    19     8     9 1   
    20     8     9 1   
    21     8    19 1   
    22     9    20 1   
@<TRIPOS>SUBSTRUCTURE
     1 MOL         1 TEMP              0 ****  ****    0 ROOT
