@<TRIPOS>MOLECULE
MOL
   20    22     1     0     0
SMALL
No Charge or Current Charge


@<TRIPOS>ATOM
      1 C1          -2.0520     0.6170    -2.9310 c3         1 MOL       0.000000
      2 C2          -1.6620     0.4310    -1.4640 c3         1 MOL       0.000000
      3 C3          -1.0780    -0.9660    -1.1620 c3         1 MOL       0.000000
      4 C4           0.4180    -0.9700    -0.8470 c3         1 MOL       0.000000
      5 N1           0.7390    -0.2670     0.3860 n3         1 MOL       0.000000
      6 N2           0.3260    -0.7400     1.5430 n3         1 MOL       0.000000
      7 N3           0.7320     0.0330     2.4660 n3         1 MOL       0.000000
      8 C5           1.4370     1.0440     1.9150 c3         1 MOL       0.000000
      9 C6           1.4490     0.8580     0.5690 c3         1 MOL       0.000000
     10 H1          -2.4500     1.6100    -3.1080 hc         1 MOL       0.000000
     11 H2          -2.8100    -0.1030    -3.2260 hc         1 MOL       0.000000
     12 H3          -1.1970     0.4820    -3.5890 hc         1 MOL       0.000000
     13 H4          -0.9540     1.2030    -1.1770 hc         1 MOL       0.000000
     14 H5          -2.5380     0.5960    -0.8460 hc         1 MOL       0.000000
     15 H6          -1.5920    -1.4210    -0.3240 hc         1 MOL       0.000000
     16 H7          -1.2290    -1.6260    -2.0120 hc         1 MOL       0.000000
     17 H8           0.7780    -1.9860    -0.7470 h1         1 MOL       0.000000
     18 H9           0.9840    -0.4920    -1.6370 h1         1 MOL       0.000000
     19 H10          1.8780     1.8160     2.5070 h1         1 MOL       0.000000
     20 H11          1.8860     1.4040    -0.2370 h1         1 MOL       0.000000
@<TRIPOS>BOND
     1     1     2 1   
     2     1    10 1   
     3     1    11 1   
     4     1    12 1   
     5     2     3 1   
     6     2    13 1   
     7     2    14 1   
     8     3     4 1   
     9     3    15 1   
    10     3    16 1   
    11     4     5 1   
    12     4    17 1   
    13     4    18 1   
    14     5     6 1   
    15     5     9 1   
    16     6     7 1   
    17     6     7 1   
    18     7     8 1   
    19     8     9 1   
    20     8     9 1   
    21     8    19 1   
    22     9    20 1   
@<TRIPOS>SUBSTRUCTURE
     1 MOL         1 TEMP              0 ****  ****    0 ROOT
