@<TRIPOS>MOLECULE								
MOL								
20	20	1	0	0				
SMALL								
No	Charge	or	Current	Charge				
@<TRIPOS>ATOM								
1	C1	-2.3760	1.0480	-0.8800	c3	1	MOL	-0.0574796410713743
2	C2	-2.1000	-0.4490	-1.0300	c3	1	MOL	0.0502276851611604
3	C3	-1.6910	-1.1340	0.2920	c3	1	MOL	0.029434866161889
4	C4	-0.2280	-1.5690	0.3510	c3	1	MOL	-0.1367489029942565
5	N1	0.7010	-0.4530	0.2520	na	1	MOL	0.3986932518358891
6	N2	0.7900	0.4210	1.2320	nc	1	MOL	-0.2502196049522864
7	N3	1.6500	1.3010	0.9150	nd	1	MOL	-0.3193359951280445
8	C5	2.1440	1.0120	-0.3080	cd	1	MOL	0.1155272094562996
9	C6	1.5390	-0.1240	-0.7440	cc	1	MOL	-0.3665531218424377
10	H1	-2.6490	1.4900	-1.8320	hc	1	MOL	0.0130890605865177
11	H2	-1.5060	1.5750	-0.5020	hc	1	MOL	0.0130890605865177
12	H3	-3.1930	1.2210	-0.1860	hc	1	MOL	0.0130890605865177
13	H4	-2.9930	-0.9290	-1.4200	hc	1	MOL	-0.0014480429946745
14	H5	-1.3310	-0.6000	-1.7820	hc	1	MOL	-0.0014480429946745
15	H6	-1.8920	-0.4830	1.1350	hc	1	MOL	0.013903235081947
16	H7	-2.2840	-2.0310	0.4490	hc	1	MOL	0.013903235081947
17	H8	-0.0230	-2.0810	1.2820	h1	1	MOL	0.0718422229084886
18	H9	0.0050	-2.2450	-0.4610	h1	1	MOL	0.0718422229084886
19	H10	2.8850	1.6210	-0.7780	h4	1	MOL	0.1170117401835705
20	H11	1.6320	-0.7010	-1.6370	h4	1	MOL	0.2115805014385151
@<TRIPOS>BOND								
1	1	2	1					
2	1	10	1					
3	1	11	1					
4	1	12	1					
5	2	3	1					
6	2	13	1					
7	2	14	1					
8	3	4	1					
9	3	15	1					
10	3	16	1					
11	4	5	1					
12	4	17	1					
13	4	18	1					
14	5	6	1					
15	5	9	1					
16	6	7	2					
17	7	8	1					
18	8	9	2					
19	8	19	1					
20	9	20	1					
@<TRIPOS>SUBSTRUCTURE								
1	MOL	1	TEMP	0	****	****	0	ROOT
