@<TRIPOS>MOLECULE								
MOL								
20	20	1	0	0				
SMALL								
No	Charge	or	Current	Charge				
@<TRIPOS>ATOM								
1	C1	-3.0070	1.1400	-0.8120	c3	1	MOL	-0.0574796410713743
2	C2	-2.1100	-0.0880	-0.9640	c3	1	MOL	0.0502276851611604
3	C3	-1.7480	-0.7300	0.3840	c3	1	MOL	0.029434866161889
4	C4	-0.3910	-1.4310	0.4040	c3	1	MOL	-0.1367489029942565
5	N1	0.7240	-0.5120	0.2370	na	1	MOL	0.3986932518358891
6	N2	0.9750	0.3990	1.1550	nc	1	MOL	-0.2502196049522864
7	N3	1.9970	1.0650	0.7980	nd	1	MOL	-0.3193359951280445
8	C5	2.4410	0.5880	-0.3850	cd	1	MOL	0.1155272094562996
9	C6	1.6260	-0.4340	-0.7550	cc	1	MOL	-0.3665531218424377
10	H1	-3.2700	1.5540	-1.7800	hc	1	MOL	0.0130890605865177
11	H2	-2.5030	1.9150	-0.2430	hc	1	MOL	0.0130890605865177
12	H3	-3.9310	0.8960	-0.2950	hc	1	MOL	0.0130890605865177
13	H4	-2.5900	-0.8250	-1.6030	hc	1	MOL	-0.0014480429946745
14	H5	-1.2030	0.2180	-1.4780	hc	1	MOL	-0.0014480429946745
15	H6	-1.7380	0.0240	1.1640	hc	1	MOL	0.013903235081947
16	H7	-2.5030	-1.4580	0.6680	hc	1	MOL	0.013903235081947
17	H8	-0.2500	-1.9500	1.3430	h1	1	MOL	0.0718422229084886
18	H9	-0.3160	-2.1610	-0.3930	h1	1	MOL	0.0718422229084886
19	H10	3.2960	1.0000	-0.8760	h4	1	MOL	0.1170117401835705
20	H11	1.6120	-1.0840	-1.6020	h4	1	MOL	0.2115805014385151
@<TRIPOS>BOND								
1	1	2	1					
2	1	10	1					
3	1	11	1					
4	1	12	1					
5	2	3	1					
6	2	13	1					
7	2	14	1					
8	3	4	1					
9	3	15	1					
10	3	16	1					
11	4	5	1					
12	4	17	1					
13	4	18	1					
14	5	6	1					
15	5	9	1					
16	6	7	2					
17	7	8	1					
18	8	9	2					
19	8	19	1					
20	9	20	1					
@<TRIPOS>SUBSTRUCTURE								
1	MOL	1	TEMP	0	****	****	0	ROOT
