@<TRIPOS>MOLECULE
MOL
   20    22     1     0     0
SMALL
No Charge or Current Charge


@<TRIPOS>ATOM
      1 C1          -1.7730     0.4510    -1.8170 c3         1 MOL       0.000000
      2 C2          -2.3460    -0.6270    -0.8920 c3         1 MOL       0.000000
      3 C3          -1.3480    -1.5840    -0.1830 c3         1 MOL       0.000000
      4 C4           0.1480    -1.4010    -0.4380 c3         1 MOL       0.000000
      5 N1           0.7060    -0.1960     0.1620 n3         1 MOL       0.000000
      6 N2           0.4180     0.1370     1.4030 n3         1 MOL       0.000000
      7 N3           1.0830     1.1740     1.7120 n3         1 MOL       0.000000
      8 C5           1.8430     1.5380     0.6570 c3         1 MOL       0.000000
      9 C6           1.6100     0.6550    -0.3480 c3         1 MOL       0.000000
     10 H1          -2.5860     1.0080    -2.2700 hc         1 MOL       0.000000
     11 H2          -1.1870     0.0280    -2.6280 hc         1 MOL       0.000000
     12 H3          -1.1520     1.1590    -1.2820 hc         1 MOL       0.000000
     13 H4          -2.9400    -0.1300    -0.1330 hc         1 MOL       0.000000
     14 H5          -3.0440    -1.2280    -1.4660 hc         1 MOL       0.000000
     15 H6          -1.5050    -1.5500     0.8870 hc         1 MOL       0.000000
     16 H7          -1.5660    -2.6040    -0.4850 hc         1 MOL       0.000000
     17 H8           0.6790    -2.2520    -0.0290 h1         1 MOL       0.000000
     18 H9           0.3710    -1.3550    -1.4950 h1         1 MOL       0.000000
     19 H10          2.4870     2.3900     0.6900 h1         1 MOL       0.000000
     20 H11          1.9890     0.5690    -1.3430 h1         1 MOL       0.000000
@<TRIPOS>BOND
     1     1     2 1   
     2     1    10 1   
     3     1    11 1   
     4     1    12 1   
     5     2     3 1   
     6     2    13 1   
     7     2    14 1   
     8     3     4 1   
     9     3    15 1   
    10     3    16 1   
    11     4     5 1   
    12     4    17 1   
    13     4    18 1   
    14     5     6 1   
    15     5     9 1   
    16     6     7 1   
    17     6     7 1   
    18     7     8 1   
    19     8     9 1   
    20     8     9 1   
    21     8    19 1   
    22     9    20 1   
@<TRIPOS>SUBSTRUCTURE
     1 MOL         1 TEMP              0 ****  ****    0 ROOT
