@<TRIPOS>MOLECULE								
MOL								
20	20	1	0	0				
SMALL								
No	Charge	or	Current	Charge				
@<TRIPOS>ATOM								
1	C1	-1.7490	0.5670	-2.1840	c3	1	MOL	-0.0574796410713743
2	C2	-2.2130	-0.1970	-0.9420	c3	1	MOL	0.0502276851611604
3	C3	-1.3630	-1.4160	-0.5520	c3	1	MOL	0.029434866161889
4	C4	0.1510	-1.2620	-0.6790	c3	1	MOL	-0.1367489029942565
5	N1	0.6970	-0.2290	0.1920	na	1	MOL	0.3986932518358891
6	N2	0.4240	-0.2290	1.4800	nc	1	MOL	-0.2502196049522864
7	N3	1.0570	0.7260	2.0300	nd	1	MOL	-0.3193359951280445
8	C5	1.7750	1.3770	1.0900	cd	1	MOL	0.1155272094562996
9	C6	1.5520	0.7640	-0.1020	cc	1	MOL	-0.3665531218424377
10	H1	-2.4690	1.3370	-2.4420	hc	1	MOL	0.0130890605865177
11	H2	-1.6490	-0.0880	-3.0470	hc	1	MOL	0.0130890605865177
12	H3	-0.7970	1.0590	-2.0230	hc	1	MOL	0.0130890605865177
13	H4	-2.2400	0.4950	-0.1060	hc	1	MOL	-0.0014480429946745
14	H5	-3.2350	-0.5360	-1.0850	hc	1	MOL	-0.0014480429946745
15	H6	-1.6040	-1.7170	0.4600	hc	1	MOL	0.013903235081947
16	H7	-1.6260	-2.2540	-1.1960	hc	1	MOL	0.013903235081947
17	H8	0.6330	-2.1990	-0.4320	h1	1	MOL	0.0718422229084886
18	H9	0.4370	-1.0020	-1.6890	h1	1	MOL	0.0718422229084886
19	H10	2.3860	2.2200	1.3270	h4	1	MOL	0.1170117401835705
20	H11	1.9140	0.9430	-1.0910	h4	1	MOL	0.2115805014385151
@<TRIPOS>BOND								
1	1	2	1					
2	1	10	1					
3	1	11	1					
4	1	12	1					
5	2	3	1					
6	2	13	1					
7	2	14	1					
8	3	4	1					
9	3	15	1					
10	3	16	1					
11	4	5	1					
12	4	17	1					
13	4	18	1					
14	5	6	1					
15	5	9	1					
16	6	7	2					
17	7	8	1					
18	8	9	2					
19	8	19	1					
20	9	20	1					
@<TRIPOS>SUBSTRUCTURE								
1	MOL	1	TEMP	0	****	****	0	ROOT
