@<TRIPOS>MOLECULE								
MOL								
20	20	1	0	0				
SMALL								
No	Charge	or	Current	Charge				
@<TRIPOS>ATOM								
1	C1	-3.1720	1.0980	-1.0500	c3	1	MOL	-0.0574796410713743
2	C2	-2.0150	0.1000	-1.0430	c3	1	MOL	0.0502276851611604
3	C3	-1.7800	-0.5130	0.3390	c3	1	MOL	0.029434866161889
4	C4	-0.4960	-1.3320	0.4530	c3	1	MOL	-0.1367489029942565
5	N1	0.7070	-0.5290	0.2990	na	1	MOL	0.3986932518358891
6	N2	1.0300	0.3610	1.2150	nc	1	MOL	-0.2502196049522864
7	N3	2.1090	0.9320	0.8650	nd	1	MOL	-0.3193359951280445
8	C5	2.5260	0.4040	-0.3060	cd	1	MOL	0.1155272094562996
9	C6	1.6240	-0.5410	-0.6820	cc	1	MOL	-0.3665531218424377
10	H1	-3.3290	1.5060	-2.0440	hc	1	MOL	0.0130890605865177
11	H2	-2.9710	1.9270	-0.3790	hc	1	MOL	0.0130890605865177
12	H3	-4.1010	0.6320	-0.7330	hc	1	MOL	0.0130890605865177
13	H4	-2.2050	-0.6910	-1.7650	hc	1	MOL	-0.0014480429946745
14	H5	-1.1140	0.6100	-1.3710	hc	1	MOL	-0.0014480429946745
15	H6	-1.7480	0.2700	1.0900	hc	1	MOL	0.013903235081947
16	H7	-2.6110	-1.1640	0.6000	hc	1	MOL	0.013903235081947
17	H8	-0.4430	-1.8160	1.4190	h1	1	MOL	0.0718422229084886
18	H9	-0.4570	-2.1030	-0.3070	h1	1	MOL	0.0718422229084886
19	H10	3.4210	0.7310	-0.7890	h4	1	MOL	0.1170117401835705
20	H11	1.5600	-1.1930	-1.5250	h4	1	MOL	0.2115805014385151
@<TRIPOS>BOND								
1	1	2	1					
2	1	10	1					
3	1	11	1					
4	1	12	1					
5	2	3	1					
6	2	13	1					
7	2	14	1					
8	3	4	1					
9	3	15	1					
10	3	16	1					
11	4	5	1					
12	4	17	1					
13	4	18	1					
14	5	6	1					
15	5	9	1					
16	6	7	2					
17	7	8	1					
18	8	9	2					
19	8	19	1					
20	9	20	1					
@<TRIPOS>SUBSTRUCTURE								
1	MOL	1	TEMP	0	****	****	0	ROOT
