@<TRIPOS>MOLECULE
MOL
   20    22     1     0     0
SMALL
No Charge or Current Charge


@<TRIPOS>ATOM
      1 C1          -2.3530     0.9720    -1.0280 c3         1 MOL       0.000000
      2 C2          -2.0440    -0.5250    -1.1040 c3         1 MOL       0.000000
      3 C3          -1.6870    -1.1500     0.2620 c3         1 MOL       0.000000
      4 C4          -0.2220    -1.5550     0.4090 c3         1 MOL       0.000000
      5 N1           0.6940    -0.4290     0.3020 n3         1 MOL       0.000000
      6 N2           0.7150     0.4970     1.2380 n3         1 MOL       0.000000
      7 N3           1.5800     1.3720     0.9240 n3         1 MOL       0.000000
      8 C5           2.1540     1.0240    -0.2480 c3         1 MOL       0.000000
      9 C6           1.5880    -0.1420    -0.6580 c3         1 MOL       0.000000
     10 H1          -2.5860     1.3710    -2.0100 hc         1 MOL       0.000000
     11 H2          -1.5120     1.5300    -0.6290 hc         1 MOL       0.000000
     12 H3          -3.2070     1.1560    -0.3840 hc         1 MOL       0.000000
     13 H4          -2.9080    -1.0370    -1.5170 hc         1 MOL       0.000000
     14 H5          -1.2360    -0.6900    -1.8120 hc         1 MOL       0.000000
     15 H6          -1.9400    -0.4700     1.0680 hc         1 MOL       0.000000
     16 H7          -2.2720    -2.0510     0.4250 hc         1 MOL       0.000000
     17 H8          -0.0540    -2.0230     1.3700 h1         1 MOL       0.000000
     18 H9           0.0600    -2.2620    -0.3600 h1         1 MOL       0.000000
     19 H10          2.9170     1.6160    -0.7040 h1         1 MOL       0.000000
     20 H11          1.7410    -0.7640    -1.5120 h1         1 MOL       0.000000
@<TRIPOS>BOND
     1     1     2 1   
     2     1    10 1   
     3     1    11 1   
     4     1    12 1   
     5     2     3 1   
     6     2    13 1   
     7     2    14 1   
     8     3     4 1   
     9     3    15 1   
    10     3    16 1   
    11     4     5 1   
    12     4    17 1   
    13     4    18 1   
    14     5     6 1   
    15     5     9 1   
    16     6     7 1   
    17     6     7 1   
    18     7     8 1   
    19     8     9 1   
    20     8     9 1   
    21     8    19 1   
    22     9    20 1   
@<TRIPOS>SUBSTRUCTURE
     1 MOL         1 TEMP              0 ****  ****    0 ROOT
