@<TRIPOS>MOLECULE								
MOL								
20	20	1	0	0				
SMALL								
No	Charge	or	Current	Charge				
@<TRIPOS>ATOM								
1	C1	-3.1190	1.1410	-0.8380	c3	1	MOL	-0.0574796410713743
2	C2	-2.0940	0.0120	-0.9430	c3	1	MOL	0.0502276851611604
3	C3	-1.7580	-0.6070	0.4180	c3	1	MOL	0.029434866161889
4	C4	-0.4390	-1.3780	0.4500	c3	1	MOL	-0.1367489029942565
5	N1	0.7220	-0.5240	0.2490	na	1	MOL	0.3986932518358891
6	N2	1.0550	0.3650	1.1610	nc	1	MOL	-0.2502196049522864
7	N3	2.0970	0.9780	0.7700	nd	1	MOL	-0.3193359951280445
8	C5	2.4710	0.4860	-0.4310	cd	1	MOL	0.1155272094562996
9	C6	1.5890	-0.4880	-0.7750	cc	1	MOL	-0.3665531218424377
10	H1	-3.3580	1.5450	-1.8160	hc	1	MOL	0.0130890605865177
11	H2	-2.7350	1.9520	-0.2280	hc	1	MOL	0.0130890605865177
12	H3	-4.0450	0.7970	-0.3870	hc	1	MOL	0.0130890605865177
13	H4	-2.4570	-0.7600	-1.6170	hc	1	MOL	-0.0014480429946745
14	H5	-1.1910	0.4140	-1.3920	hc	1	MOL	-0.0014480429946745
15	H6	-1.7050	0.1680	1.1750	hc	1	MOL	0.013903235081947
16	H7	-2.5510	-1.2860	0.7220	hc	1	MOL	0.013903235081947
17	H8	-0.3170	-1.8740	1.4030	h1	1	MOL	0.0718422229084886
18	H9	-0.4090	-2.1350	-0.3240	h1	1	MOL	0.0718422229084886
19	H10	3.3280	0.8540	-0.9510	h4	1	MOL	0.1170117401835705
20	H11	1.5100	-1.1310	-1.6240	h4	1	MOL	0.2115805014385151
@<TRIPOS>BOND								
1	1	2	1					
2	1	10	1					
3	1	11	1					
4	1	12	1					
5	2	3	1					
6	2	13	1					
7	2	14	1					
8	3	4	1					
9	3	15	1					
10	3	16	1					
11	4	5	1					
12	4	17	1					
13	4	18	1					
14	5	6	1					
15	5	9	1					
16	6	7	2					
17	7	8	1					
18	8	9	2					
19	8	19	1					
20	9	20	1					
@<TRIPOS>SUBSTRUCTURE								
1	MOL	1	TEMP	0	****	****	0	ROOT
