@<TRIPOS>MOLECULE
MOL
   20    22     1     0     0
SMALL
No Charge or Current Charge


@<TRIPOS>ATOM
      1 C1          -2.1380     0.9580    -2.8670 c3         1 MOL       0.000000
      2 C2          -1.4410     0.6970    -1.5310 c3         1 MOL       0.000000
      3 C3          -0.9470    -0.7570    -1.3800 c3         1 MOL       0.000000
      4 C4           0.5080    -0.8860    -0.9360 c3         1 MOL       0.000000
      5 N1           0.7460    -0.3410     0.3930 n3         1 MOL       0.000000
      6 N2           0.2210    -0.9260     1.4490 n3         1 MOL       0.000000
      7 N3           0.5600    -0.2740     2.4850 n3         1 MOL       0.000000
      8 C5           1.3310     0.7700     2.1150 c3         1 MOL       0.000000
      9 C6           1.4580     0.7350     0.7620 c3         1 MOL       0.000000
     10 H1          -2.4790     1.9850    -2.9360 hc         1 MOL       0.000000
     11 H2          -3.0030     0.3130    -2.9920 hc         1 MOL       0.000000
     12 H3          -1.4650     0.7730    -3.6990 hc         1 MOL       0.000000
     13 H4          -0.6020     1.3830    -1.4430 hc         1 MOL       0.000000
     14 H5          -2.1100     0.9460    -0.7130 hc         1 MOL       0.000000
     15 H6          -1.5710    -1.3050    -0.6850 hc         1 MOL       0.000000
     16 H7          -1.0230    -1.2720    -2.3350 hc         1 MOL       0.000000
     17 H8           0.8080    -1.9250    -0.9210 h1         1 MOL       0.000000
     18 H9           1.1650    -0.3570    -1.6150 h1         1 MOL       0.000000
     19 H10          1.7340     1.4580     2.8260 h1         1 MOL       0.000000
     20 H11          1.9760     1.3550     0.0640 h1         1 MOL       0.000000
@<TRIPOS>BOND
     1     1     2 1   
     2     1    10 1   
     3     1    11 1   
     4     1    12 1   
     5     2     3 1   
     6     2    13 1   
     7     2    14 1   
     8     3     4 1   
     9     3    15 1   
    10     3    16 1   
    11     4     5 1   
    12     4    17 1   
    13     4    18 1   
    14     5     6 1   
    15     5     9 1   
    16     6     7 1   
    17     6     7 1   
    18     7     8 1   
    19     8     9 1   
    20     8     9 1   
    21     8    19 1   
    22     9    20 1   
@<TRIPOS>SUBSTRUCTURE
     1 MOL         1 TEMP              0 ****  ****    0 ROOT
