@<TRIPOS>MOLECULE
MOL
   20    22     1     0     0
SMALL
No Charge or Current Charge


@<TRIPOS>ATOM
      1 C1          -1.7440     0.5370    -1.6240 c3         1 MOL       0.000000
      2 C2          -2.3530    -0.6810    -0.9240 c3         1 MOL       0.000000
      3 C3          -1.4200    -1.5580    -0.0520 c3         1 MOL       0.000000
      4 C4           0.0880    -1.4760    -0.2920 c3         1 MOL       0.000000
      5 N1           0.6960    -0.2350     0.1690 n3         1 MOL       0.000000
      6 N2           0.4210     0.2500     1.3620 n3         1 MOL       0.000000
      7 N3           1.1260     1.2900     1.5510 n3         1 MOL       0.000000
      8 C5           1.8990     1.5000     0.4640 c3         1 MOL       0.000000
      9 C6           1.6310     0.5160    -0.4330 c3         1 MOL       0.000000
     10 H1          -2.5080     1.0350    -2.2130 hc         1 MOL       0.000000
     11 H2          -0.9470     0.2580    -2.3050 hc         1 MOL       0.000000
     12 H3          -1.3480     1.2590    -0.9190 hc         1 MOL       0.000000
     13 H4          -3.1810    -0.3510    -0.3060 hc         1 MOL       0.000000
     14 H5          -2.7920    -1.3110    -1.6940 hc         1 MOL       0.000000
     15 H6          -1.5850    -1.3380     0.9950 hc         1 MOL       0.000000
     16 H7          -1.6940    -2.6000    -0.1870 hc         1 MOL       0.000000
     17 H8           0.5700    -2.2940     0.2290 h1         1 MOL       0.000000
     18 H9           0.3340    -1.5720    -1.3420 h1         1 MOL       0.000000
     19 H10          2.5750     2.3250     0.4000 h1         1 MOL       0.000000
     20 H11          2.0050     0.3010    -1.4100 h1         1 MOL       0.000000
@<TRIPOS>BOND
     1     1     2 1   
     2     1    10 1   
     3     1    11 1   
     4     1    12 1   
     5     2     3 1   
     6     2    13 1   
     7     2    14 1   
     8     3     4 1   
     9     3    15 1   
    10     3    16 1   
    11     4     5 1   
    12     4    17 1   
    13     4    18 1   
    14     5     6 1   
    15     5     9 1   
    16     6     7 1   
    17     6     7 1   
    18     7     8 1   
    19     8     9 1   
    20     8     9 1   
    21     8    19 1   
    22     9    20 1   
@<TRIPOS>SUBSTRUCTURE
     1 MOL         1 TEMP              0 ****  ****    0 ROOT
