@<TRIPOS>MOLECULE
MOL
   20    22     1     0     0
SMALL
No Charge or Current Charge


@<TRIPOS>ATOM
      1 C1          -3.0770     1.0750    -1.0620 c3         1 MOL       0.000000
      2 C2          -2.0340    -0.0410    -1.0730 c3         1 MOL       0.000000
      3 C3          -1.7730    -0.6170     0.3240 c3         1 MOL       0.000000
      4 C4          -0.4500    -1.3700     0.4580 c3         1 MOL       0.000000
      5 N1           0.7120    -0.5090     0.3080 n3         1 MOL       0.000000
      6 N2           0.9830     0.4020     1.2200 n3         1 MOL       0.000000
      7 N3           2.0350     1.0230     0.8750 n3         1 MOL       0.000000
      8 C5           2.4860     0.5110    -0.2900 c3         1 MOL       0.000000
      9 C6           1.6360    -0.4800    -0.6660 c3         1 MOL       0.000000
     10 H1          -3.2610     1.4480    -2.0650 hc         1 MOL       0.000000
     11 H2          -2.7410     1.9090    -0.4530 hc         1 MOL       0.000000
     12 H3          -4.0250     0.7300    -0.6590 hc         1 MOL       0.000000
     13 H4          -2.3440    -0.8390    -1.7440 hc         1 MOL       0.000000
     14 H5          -1.1090     0.3600    -1.4780 hc         1 MOL       0.000000
     15 H6          -1.7730     0.1820     1.0580 hc         1 MOL       0.000000
     16 H7          -2.5750    -1.2960     0.6020 hc         1 MOL       0.000000
     17 H8          -0.3830    -1.8400     1.4300 h1         1 MOL       0.000000
     18 H9          -0.3650    -2.1460    -0.2920 h1         1 MOL       0.000000
     19 H10          3.3680     0.8790    -0.7680 h1         1 MOL       0.000000
     20 H11          1.6130    -1.1410    -1.5050 h1         1 MOL       0.000000
@<TRIPOS>BOND
     1     1     2 1   
     2     1    10 1   
     3     1    11 1   
     4     1    12 1   
     5     2     3 1   
     6     2    13 1   
     7     2    14 1   
     8     3     4 1   
     9     3    15 1   
    10     3    16 1   
    11     4     5 1   
    12     4    17 1   
    13     4    18 1   
    14     5     6 1   
    15     5     9 1   
    16     6     7 1   
    17     6     7 1   
    18     7     8 1   
    19     8     9 1   
    20     8     9 1   
    21     8    19 1   
    22     9    20 1   
@<TRIPOS>SUBSTRUCTURE
     1 MOL         1 TEMP              0 ****  ****    0 ROOT
