@<TRIPOS>MOLECULE
MOL
   20    22     1     0     0
SMALL
No Charge or Current Charge


@<TRIPOS>ATOM
      1 C1          -1.7300     0.4510    -2.0550 c3         1 MOL       0.000000
      2 C2          -2.2830    -0.4640    -0.9610 c3         1 MOL       0.000000
      3 C3          -1.3220    -1.5350    -0.3900 c3         1 MOL       0.000000
      4 C4           0.1780    -1.3160    -0.5760 c3         1 MOL       0.000000
      5 N1           0.7000    -0.1860     0.1860 n3         1 MOL       0.000000
      6 N2           0.3810    -0.0240     1.4530 n3         1 MOL       0.000000
      7 N3           1.0190     0.9760     1.9090 n3         1 MOL       0.000000
      8 C5           1.7910     1.4890     0.9280 c3         1 MOL       0.000000
      9 C6           1.5960     0.7410    -0.1900 c3         1 MOL       0.000000
     10 H1          -2.5090     1.1230    -2.4010 hc         1 MOL       0.000000
     11 H2          -1.3820    -0.1070    -2.9210 hc         1 MOL       0.000000
     12 H3          -0.9130     1.0640    -1.6950 hc         1 MOL       0.000000
     13 H4          -2.6180     0.1680    -0.1450 hc         1 MOL       0.000000
     14 H5          -3.1700    -0.9690    -1.3300 hc         1 MOL       0.000000
     15 H6          -1.5250    -1.6840     0.6620 hc         1 MOL       0.000000
     16 H7          -1.5270    -2.4850    -0.8770 hc         1 MOL       0.000000
     17 H8           0.7080    -2.2060    -0.2590 h1         1 MOL       0.000000
     18 H9           0.4270    -1.1360    -1.6120 h1         1 MOL       0.000000
     19 H10          2.4160     2.3400     1.0850 h1         1 MOL       0.000000
     20 H11          1.9980     0.7900    -1.1780 h1         1 MOL       0.000000
@<TRIPOS>BOND
     1     1     2 1   
     2     1    10 1   
     3     1    11 1   
     4     1    12 1   
     5     2     3 1   
     6     2    13 1   
     7     2    14 1   
     8     3     4 1   
     9     3    15 1   
    10     3    16 1   
    11     4     5 1   
    12     4    17 1   
    13     4    18 1   
    14     5     6 1   
    15     5     9 1   
    16     6     7 1   
    17     6     7 1   
    18     7     8 1   
    19     8     9 1   
    20     8     9 1   
    21     8    19 1   
    22     9    20 1   
@<TRIPOS>SUBSTRUCTURE
     1 MOL         1 TEMP              0 ****  ****    0 ROOT
