@<TRIPOS>MOLECULE
MOL
   20    22     1     0     0
SMALL
No Charge or Current Charge


@<TRIPOS>ATOM
      1 C1          -2.0440     0.6640    -2.8460 c3         1 MOL       0.000000
      2 C2          -1.7840     0.4040    -1.3610 c3         1 MOL       0.000000
      3 C3          -1.1650    -0.9800    -1.0860 c3         1 MOL       0.000000
      4 C4           0.3480    -0.9640    -0.8690 c3         1 MOL       0.000000
      5 N1           0.7390    -0.2660     0.3450 n3         1 MOL       0.000000
      6 N2           0.4300    -0.7660     1.5240 n3         1 MOL       0.000000
      7 N3           0.8760     0.0100     2.4250 n3         1 MOL       0.000000
      8 C5           1.5020     1.0520     1.8370 c3         1 MOL       0.000000
      9 C6           1.4200     0.8820     0.4920 c3         1 MOL       0.000000
     10 H1          -2.4570     1.6550    -3.0040 hc         1 MOL       0.000000
     11 H2          -2.7500    -0.0570    -3.2480 hc         1 MOL       0.000000
     12 H3          -1.1310     0.5910    -3.4320 hc         1 MOL       0.000000
     13 H4          -1.1510     1.1850    -0.9540 hc         1 MOL       0.000000
     14 H5          -2.7260     0.4840    -0.8280 hc         1 MOL       0.000000
     15 H6          -1.6140    -1.4260    -0.2060 hc         1 MOL       0.000000
     16 H7          -1.3720    -1.6530    -1.9140 hc         1 MOL       0.000000
     17 H8           0.7280    -1.9740    -0.8000 h1         1 MOL       0.000000
     18 H9           0.8570    -0.4730    -1.6900 h1         1 MOL       0.000000
     19 H10          1.9590     1.8320     2.4060 h1         1 MOL       0.000000
     20 H11          1.7770     1.4530    -0.3370 h1         1 MOL       0.000000
@<TRIPOS>BOND
     1     1     2 1   
     2     1    10 1   
     3     1    11 1   
     4     1    12 1   
     5     2     3 1   
     6     2    13 1   
     7     2    14 1   
     8     3     4 1   
     9     3    15 1   
    10     3    16 1   
    11     4     5 1   
    12     4    17 1   
    13     4    18 1   
    14     5     6 1   
    15     5     9 1   
    16     6     7 1   
    17     6     7 1   
    18     7     8 1   
    19     8     9 1   
    20     8     9 1   
    21     8    19 1   
    22     9    20 1   
@<TRIPOS>SUBSTRUCTURE
     1 MOL         1 TEMP              0 ****  ****    0 ROOT
