@<TRIPOS>MOLECULE
MOL
   20    22     1     0     0
SMALL
No Charge or Current Charge


@<TRIPOS>ATOM
      1 C1          -2.6850     1.0350    -1.0030 c3         1 MOL       0.000000
      2 C2          -2.0570    -0.3570    -1.0830 c3         1 MOL       0.000000
      3 C3          -1.7270    -0.9520     0.3020 c3         1 MOL       0.000000
      4 C4          -0.3060    -1.4970     0.4320 c3         1 MOL       0.000000
      5 N1           0.7090    -0.4630     0.2970 n3         1 MOL       0.000000
      6 N2           0.7810     0.5140     1.1770 n3         1 MOL       0.000000
      7 N3           1.7460     1.2770     0.8600 n3         1 MOL       0.000000
      8 C5           2.3330     0.8020    -0.2600 c3         1 MOL       0.000000
      9 C6           1.6710    -0.3260    -0.6300 c3         1 MOL       0.000000
     10 H1          -2.9180     1.4160    -1.9930 hc         1 MOL       0.000000
     11 H2          -2.0080     1.7350    -0.5240 hc         1 MOL       0.000000
     12 H3          -3.6070     1.0180    -0.4290 hc         1 MOL       0.000000
     13 H4          -2.7220    -1.0270    -1.6210 hc         1 MOL       0.000000
     14 H5          -1.1530    -0.2890    -1.6820 hc         1 MOL       0.000000
     15 H6          -1.8630    -0.2030     1.0740 hc         1 MOL       0.000000
     16 H7          -2.4080    -1.7640     0.5390 hc         1 MOL       0.000000
     17 H8          -0.1700    -1.9690     1.3960 h1         1 MOL       0.000000
     18 H9          -0.1010    -2.2360    -0.3320 h1         1 MOL       0.000000
     19 H10          3.1700     1.2870    -0.7110 h1         1 MOL       0.000000
     20 H11          1.7980    -1.0130    -1.4380 h1         1 MOL       0.000000
@<TRIPOS>BOND
     1     1     2 1   
     2     1    10 1   
     3     1    11 1   
     4     1    12 1   
     5     2     3 1   
     6     2    13 1   
     7     2    14 1   
     8     3     4 1   
     9     3    15 1   
    10     3    16 1   
    11     4     5 1   
    12     4    17 1   
    13     4    18 1   
    14     5     6 1   
    15     5     9 1   
    16     6     7 1   
    17     6     7 1   
    18     7     8 1   
    19     8     9 1   
    20     8     9 1   
    21     8    19 1   
    22     9    20 1   
@<TRIPOS>SUBSTRUCTURE
     1 MOL         1 TEMP              0 ****  ****    0 ROOT
