@<TRIPOS>MOLECULE								
MOL								
20	20	1	0	0				
SMALL								
No	Charge	or	Current	Charge				
@<TRIPOS>ATOM								
1	C1	-2.8270	1.0670	-1.0240	c3	1	MOL	-0.0574796410713743
2	C2	-2.0570	-0.2520	-1.0860	c3	1	MOL	0.0502276851611604
3	C3	-1.7490	-0.8320	0.3070	c3	1	MOL	0.029434866161889
4	C4	-0.3600	-1.4560	0.4390	c3	1	MOL	-0.1367489029942565
5	N1	0.7110	-0.4820	0.3000	na	1	MOL	0.3986932518358891
6	N2	0.8550	0.4750	1.1940	nc	1	MOL	-0.2502196049522864
7	N3	1.8560	1.1870	0.8700	nd	1	MOL	-0.3193359951280445
8	C5	2.3950	0.6960	-0.2670	cd	1	MOL	0.1155272094562996
9	C6	1.6620	-0.3850	-0.6420	cc	1	MOL	-0.3665531218424377
10	H1	-3.0510	1.4360	-2.0200	hc	1	MOL	0.0130890605865177
11	H2	-2.2460	1.8250	-0.5080	hc	1	MOL	0.0130890605865177
12	H3	-3.7690	0.9520	-0.4940	hc	1	MOL	0.0130890605865177
13	H4	-2.6120	-0.9790	-1.6720	hc	1	MOL	-0.0014480429946745
14	H5	-1.1300	-0.0750	-1.6230	hc	1	MOL	-0.0014480429946745
15	H6	-1.8280	-0.0560	1.0600	hc	1	MOL	0.013903235081947
16	H7	-2.4790	-1.5920	0.5710	hc	1	MOL	0.013903235081947
17	H8	-0.2510	-1.9290	1.4050	h1	1	MOL	0.0718422229084886
18	H9	-0.1970	-2.2110	-0.3210	h1	1	MOL	0.0718422229084886
19	H10	3.2520	1.1390	-0.7250	h4	1	MOL	0.1170117401835705
20	H11	1.7360	-1.0650	-1.4620	h4	1	MOL	0.2115805014385151
@<TRIPOS>BOND								
1	1	2	1					
2	1	10	1					
3	1	11	1					
4	1	12	1					
5	2	3	1					
6	2	13	1					
7	2	14	1					
8	3	4	1					
9	3	15	1					
10	3	16	1					
11	4	5	1					
12	4	17	1					
13	4	18	1					
14	5	6	1					
15	5	9	1					
16	6	7	2					
17	7	8	1					
18	8	9	2					
19	8	19	1					
20	9	20	1					
@<TRIPOS>SUBSTRUCTURE								
1	MOL	1	TEMP	0	****	****	0	ROOT
