@<TRIPOS>MOLECULE								
MOL								
20	20	1	0	0				
SMALL								
No	Charge	or	Current	Charge				
@<TRIPOS>ATOM								
1	C1	-1.7850	0.6430	-1.7460	c3	1	MOL	-0.0574796410713743
2	C2	-2.3740	-0.4920	-0.9030	c3	1	MOL	0.0502276851611604
3	C3	-1.3920	-1.5280	-0.2900	c3	1	MOL	0.029434866161889
4	C4	0.1040	-1.3630	-0.5540	c3	1	MOL	-0.1367489029942565
5	N1	0.7030	-0.2260	0.1350	na	1	MOL	0.3986932518358891
6	N2	0.4280	0.0210	1.3980	nc	1	MOL	-0.2502196049522864
7	N3	1.1300	1.0080	1.7810	nd	1	MOL	-0.3193359951280445
8	C5	1.9010	1.4250	0.7540	cd	1	MOL	0.1155272094562996
9	C6	1.6350	0.6290	-0.3140	cc	1	MOL	-0.3665531218424377
10	H1	-2.5900	1.2580	-2.1360	hc	1	MOL	0.0130890605865177
11	H2	-1.2250	0.2720	-2.6000	hc	1	MOL	0.0130890605865177
12	H3	-1.1350	1.2860	-1.1660	hc	1	MOL	0.0130890605865177
13	H4	-2.9440	-0.0430	-0.0960	hc	1	MOL	-0.0014480429946745
14	H5	-3.0970	-1.0260	-1.5120	hc	1	MOL	-0.0014480429946745
15	H6	-1.5340	-1.5780	0.7820	hc	1	MOL	0.013903235081947
16	H7	-1.6420	-2.5150	-0.6710	hc	1	MOL	0.013903235081947
17	H8	0.6180	-2.2590	-0.2260	h1	1	MOL	0.0718422229084886
18	H9	0.3130	-1.2350	-1.6070	h1	1	MOL	0.0718422229084886
19	H10	2.5740	2.2490	0.8490	h4	1	MOL	0.1170117401835705
20	H11	2.0090	0.6060	-1.3150	h4	1	MOL	0.2115805014385151
@<TRIPOS>BOND								
1	1	2	1					
2	1	10	1					
3	1	11	1					
4	1	12	1					
5	2	3	1					
6	2	13	1					
7	2	14	1					
8	3	4	1					
9	3	15	1					
10	3	16	1					
11	4	5	1					
12	4	17	1					
13	4	18	1					
14	5	6	1					
15	5	9	1					
16	6	7	2					
17	7	8	1					
18	8	9	2					
19	8	19	1					
20	9	20	1					
@<TRIPOS>SUBSTRUCTURE								
1	MOL	1	TEMP	0	****	****	0	ROOT
