@<TRIPOS>MOLECULE
MOL
   20    22     1     0     0
SMALL
No Charge or Current Charge


@<TRIPOS>ATOM
      1 C1          -2.3270     1.0070    -1.0440 c3         1 MOL       0.000000
      2 C2          -2.0420    -0.4940    -1.1240 c3         1 MOL       0.000000
      3 C3          -1.7020    -1.1290     0.2410 c3         1 MOL       0.000000
      4 C4          -0.2440    -1.5560     0.3940 c3         1 MOL       0.000000
      5 N1           0.6870    -0.4410     0.3050 n3         1 MOL       0.000000
      6 N2           0.7230     0.4670     1.2580 n3         1 MOL       0.000000
      7 N3           1.5970     1.3390     0.9560 n3         1 MOL       0.000000
      8 C5           2.1570     1.0080    -0.2270 c3         1 MOL       0.000000
      9 C6           1.5750    -0.1430    -0.6560 c3         1 MOL       0.000000
     10 H1          -2.5530     1.4130    -2.0250 hc         1 MOL       0.000000
     11 H2          -1.4780     1.5500    -0.6430 hc         1 MOL       0.000000
     12 H3          -3.1780     1.2030    -0.3990 hc         1 MOL       0.000000
     13 H4          -2.9120    -0.9910    -1.5430 hc         1 MOL       0.000000
     14 H5          -1.2330    -0.6700    -1.8290 hc         1 MOL       0.000000
     15 H6          -1.9480    -0.4480     1.0480 hc         1 MOL       0.000000
     16 H7          -2.3010    -2.0220     0.3990 hc         1 MOL       0.000000
     17 H8          -0.0880    -2.0350     1.3510 h1         1 MOL       0.000000
     18 H9           0.0340    -2.2590    -0.3810 h1         1 MOL       0.000000
     19 H10          2.9220     1.6020    -0.6770 h1         1 MOL       0.000000
     20 H11          1.7170    -0.7500    -1.5230 h1         1 MOL       0.000000
@<TRIPOS>BOND
     1     1     2 1   
     2     1    10 1   
     3     1    11 1   
     4     1    12 1   
     5     2     3 1   
     6     2    13 1   
     7     2    14 1   
     8     3     4 1   
     9     3    15 1   
    10     3    16 1   
    11     4     5 1   
    12     4    17 1   
    13     4    18 1   
    14     5     6 1   
    15     5     9 1   
    16     6     7 1   
    17     6     7 1   
    18     7     8 1   
    19     8     9 1   
    20     8     9 1   
    21     8    19 1   
    22     9    20 1   
@<TRIPOS>SUBSTRUCTURE
     1 MOL         1 TEMP              0 ****  ****    0 ROOT
