@<TRIPOS>MOLECULE								
MOL								
20	20	1	0	0				
SMALL								
No	Charge	or	Current	Charge				
@<TRIPOS>ATOM								
1	C1	-1.8700	0.6410	-1.4260	c3	1	MOL	-0.0574796410713743
2	C2	-2.3310	-0.7600	-1.0210	c3	1	MOL	0.0502276851611604
3	C3	-1.5060	-1.4670	0.0640	c3	1	MOL	0.029434866161889
4	C4	0.0110	-1.5120	-0.1350	c3	1	MOL	-0.1367489029942565
5	N1	0.6940	-0.2650	0.1860	na	1	MOL	0.3986932518358891
6	N2	0.4750	0.3470	1.3300	nc	1	MOL	-0.2502196049522864
7	N3	1.2400	1.3590	1.4040	nd	1	MOL	-0.3193359951280445
8	C5	1.9970	1.4190	0.2880	cd	1	MOL	0.1155272094562996
9	C6	1.6550	0.3690	-0.5040	cc	1	MOL	-0.3665531218424377
10	H1	-2.5850	1.0820	-2.1140	hc	1	MOL	0.0130890605865177
11	H2	-0.9100	0.6220	-1.9280	hc	1	MOL	0.0130890605865177
12	H3	-1.7830	1.2990	-0.5680	hc	1	MOL	0.0130890605865177
13	H4	-3.3580	-0.7110	-0.6700	hc	1	MOL	-0.0014480429946745
14	H5	-2.3500	-1.3880	-1.9110	hc	1	MOL	-0.0014480429946745
15	H6	-1.7020	-1.0190	1.0310	hc	1	MOL	0.013903235081947
16	H7	-1.8440	-2.4980	0.1300	hc	1	MOL	0.013903235081947
17	H8	0.4320	-2.2860	0.4940	h1	1	MOL	0.0718422229084886
18	H9	0.2650	-1.7500	-1.1610	h1	1	MOL	0.0718422229084886
19	H10	2.7170	2.1930	0.1320	h4	1	MOL	0.1170117401835705
20	H11	1.9960	0.0380	-1.4600	h4	1	MOL	0.2115805014385151
@<TRIPOS>BOND								
1	1	2	1					
2	1	10	1					
3	1	11	1					
4	1	12	1					
5	2	3	1					
6	2	13	1					
7	2	14	1					
8	3	4	1					
9	3	15	1					
10	3	16	1					
11	4	5	1					
12	4	17	1					
13	4	18	1					
14	5	6	1					
15	5	9	1					
16	6	7	2					
17	7	8	1					
18	8	9	2					
19	8	19	1					
20	9	20	1					
@<TRIPOS>SUBSTRUCTURE								
1	MOL	1	TEMP	0	****	****	0	ROOT
