@<TRIPOS>MOLECULE
MOL
   20    22     1     0     0
SMALL
No Charge or Current Charge


@<TRIPOS>ATOM
      1 C1          -2.1670     0.7800    -2.8930 c3         1 MOL       0.000000
      2 C2          -1.2060     0.6490    -1.7110 c3         1 MOL       0.000000
      3 C3          -0.7360    -0.7950    -1.4860 c3         1 MOL       0.000000
      4 C4           0.6570    -0.9120    -0.8740 c3         1 MOL       0.000000
      5 N1           0.7460    -0.3190     0.4520 n3         1 MOL       0.000000
      6 N2           0.0980    -0.8590     1.4630 n3         1 MOL       0.000000
      7 N3           0.3220    -0.1680     2.5060 n3         1 MOL       0.000000
      8 C5           1.1400     0.8570     2.1860 c3         1 MOL       0.000000
      9 C6           1.4200     0.7680     0.8590 c3         1 MOL       0.000000
     10 H1          -2.5030     1.8040    -3.0120 hc         1 MOL       0.000000
     11 H2          -3.0470     0.1570    -2.7570 hc         1 MOL       0.000000
     12 H3          -1.6870     0.4760    -3.8190 hc         1 MOL       0.000000
     13 H4          -0.3440     1.2860    -1.9020 hc         1 MOL       0.000000
     14 H5          -1.6700     1.0310    -0.8080 hc         1 MOL       0.000000
     15 H6          -1.4450    -1.3340    -0.8670 hc         1 MOL       0.000000
     16 H7          -0.6950    -1.3180    -2.4390 hc         1 MOL       0.000000
     17 H8           0.9480    -1.9500    -0.7880 h1         1 MOL       0.000000
     18 H9           1.3880    -0.4080    -1.4930 h1         1 MOL       0.000000
     19 H10          1.4650     1.5690     2.9120 h1         1 MOL       0.000000
     20 H11          2.0180     1.3600     0.2010 h1         1 MOL       0.000000
@<TRIPOS>BOND
     1     1     2 1   
     2     1    10 1   
     3     1    11 1   
     4     1    12 1   
     5     2     3 1   
     6     2    13 1   
     7     2    14 1   
     8     3     4 1   
     9     3    15 1   
    10     3    16 1   
    11     4     5 1   
    12     4    17 1   
    13     4    18 1   
    14     5     6 1   
    15     5     9 1   
    16     6     7 1   
    17     6     7 1   
    18     7     8 1   
    19     8     9 1   
    20     8     9 1   
    21     8    19 1   
    22     9    20 1   
@<TRIPOS>SUBSTRUCTURE
     1 MOL         1 TEMP              0 ****  ****    0 ROOT
