@<TRIPOS>MOLECULE
MOL
   20    22     1     0     0
SMALL
No Charge or Current Charge


@<TRIPOS>ATOM
      1 C1          -1.7540     0.4560    -1.9500 c3         1 MOL       0.000000
      2 C2          -2.3270    -0.5340    -0.9320 c3         1 MOL       0.000000
      3 C3          -1.3460    -1.5500    -0.2890 c3         1 MOL       0.000000
      4 C4           0.1520    -1.3520    -0.5170 c3         1 MOL       0.000000
      5 N1           0.7020    -0.1910     0.1740 n3         1 MOL       0.000000
      6 N2           0.4030     0.0490     1.4330 n3         1 MOL       0.000000
      7 N3           1.0640     1.0620     1.8230 n3         1 MOL       0.000000
      8 C5           1.8330     1.5030     0.8050 c3         1 MOL       0.000000
      9 C6           1.6100     0.6960    -0.2650 c3         1 MOL       0.000000
     10 H1          -2.5510     1.0830    -2.3370 hc         1 MOL       0.000000
     11 H2          -1.3000    -0.0450    -2.8010 hc         1 MOL       0.000000
     12 H3          -1.0130     1.1100    -1.5060 hc         1 MOL       0.000000
     13 H4          -2.7880     0.0460    -0.1390 hc         1 MOL       0.000000
     14 H5          -3.1340    -1.0890    -1.4000 hc         1 MOL       0.000000
     15 H6          -1.5230    -1.6080     0.7760 hc         1 MOL       0.000000
     16 H7          -1.5600    -2.5400    -0.6840 hc         1 MOL       0.000000
     17 H8           0.6800    -2.2300    -0.1640 h1         1 MOL       0.000000
     18 H9           0.3830    -1.2300    -1.5650 h1         1 MOL       0.000000
     19 H10          2.4750     2.3500     0.9060 h1         1 MOL       0.000000
     20 H11          1.9990     0.6820    -1.2600 h1         1 MOL       0.000000
@<TRIPOS>BOND
     1     1     2 1   
     2     1    10 1   
     3     1    11 1   
     4     1    12 1   
     5     2     3 1   
     6     2    13 1   
     7     2    14 1   
     8     3     4 1   
     9     3    15 1   
    10     3    16 1   
    11     4     5 1   
    12     4    17 1   
    13     4    18 1   
    14     5     6 1   
    15     5     9 1   
    16     6     7 1   
    17     6     7 1   
    18     7     8 1   
    19     8     9 1   
    20     8     9 1   
    21     8    19 1   
    22     9    20 1   
@<TRIPOS>SUBSTRUCTURE
     1 MOL         1 TEMP              0 ****  ****    0 ROOT
