@<TRIPOS>MOLECULE
MOL
   20    22     1     0     0
SMALL
No Charge or Current Charge


@<TRIPOS>ATOM
      1 C1          -1.9270     0.6820    -1.3420 c3         1 MOL       0.000000
      2 C2          -2.3010    -0.7690    -1.0290 c3         1 MOL       0.000000
      3 C3          -1.5370    -1.4330     0.1230 c3         1 MOL       0.000000
      4 C4          -0.0180    -1.5380    -0.0260 c3         1 MOL       0.000000
      5 N1           0.6970    -0.2890     0.2030 n3         1 MOL       0.000000
      6 N2           0.4920     0.4090     1.3000 n3         1 MOL       0.000000
      7 N3           1.2770     1.4080     1.2980 n3         1 MOL       0.000000
      8 C5           2.0260     1.3770     0.1750 c3         1 MOL       0.000000
      9 C6           1.6630     0.2780    -0.5360 c3         1 MOL       0.000000
     10 H1          -2.6120     1.0940    -2.0760 hc         1 MOL       0.000000
     11 H2          -0.9270     0.7670    -1.7490 hc         1 MOL       0.000000
     12 H3          -1.9750     1.3040    -0.4540 hc         1 MOL       0.000000
     13 H4          -3.3590    -0.8140    -0.7830 hc         1 MOL       0.000000
     14 H5          -2.1780    -1.3690    -1.9290 hc         1 MOL       0.000000
     15 H6          -1.7530    -0.9250     1.0550 hc         1 MOL       0.000000
     16 H7          -1.9060    -2.4490     0.2320 hc         1 MOL       0.000000
     17 H8           0.3630    -2.2660     0.6790 h1         1 MOL       0.000000
     18 H9           0.2520    -1.8720    -1.0210 h1         1 MOL       0.000000
     19 H10          2.7570     2.1260    -0.0390 h1         1 MOL       0.000000
     20 H11          1.9940    -0.1280    -1.4670 h1         1 MOL       0.000000
@<TRIPOS>BOND
     1     1     2 1   
     2     1    10 1   
     3     1    11 1   
     4     1    12 1   
     5     2     3 1   
     6     2    13 1   
     7     2    14 1   
     8     3     4 1   
     9     3    15 1   
    10     3    16 1   
    11     4     5 1   
    12     4    17 1   
    13     4    18 1   
    14     5     6 1   
    15     5     9 1   
    16     6     7 1   
    17     6     7 1   
    18     7     8 1   
    19     8     9 1   
    20     8     9 1   
    21     8    19 1   
    22     9    20 1   
@<TRIPOS>SUBSTRUCTURE
     1 MOL         1 TEMP              0 ****  ****    0 ROOT
