@<TRIPOS>MOLECULE
MOL
   20    22     1     0     0
SMALL
No Charge or Current Charge


@<TRIPOS>ATOM
      1 C1          -1.7520     0.5850    -2.0880 c3         1 MOL       0.000000
      2 C2          -2.2720    -0.2680    -0.9290 c3         1 MOL       0.000000
      3 C3          -1.3760    -1.4430    -0.4880 c3         1 MOL       0.000000
      4 C4           0.1310    -1.2750    -0.6620 c3         1 MOL       0.000000
      5 N1           0.6960    -0.2220     0.1740 n3         1 MOL       0.000000
      6 N2           0.4150    -0.1640     1.4590 n3         1 MOL       0.000000
      7 N3           1.0760     0.7890     1.9780 n3         1 MOL       0.000000
      8 C5           1.8260     1.3760     1.0210 c3         1 MOL       0.000000
      9 C6           1.5910     0.7260    -0.1480 c3         1 MOL       0.000000
     10 H1          -2.4920     1.3310    -2.3610 hc         1 MOL       0.000000
     11 H2          -1.5510    -0.0110    -2.9760 hc         1 MOL       0.000000
     12 H3          -0.8440     1.1140    -1.8230 hc         1 MOL       0.000000
     13 H4          -2.4260     0.3880    -0.0780 hc         1 MOL       0.000000
     14 H5          -3.2490    -0.6680    -1.1810 hc         1 MOL       0.000000
     15 H6          -1.5880    -1.6970     0.5420 hc         1 MOL       0.000000
     16 H7          -1.6300    -2.3210    -1.0800 hc         1 MOL       0.000000
     17 H8           0.6270    -2.2040    -0.4100 h1         1 MOL       0.000000
     18 H9           0.3870    -1.0320    -1.6830 h1         1 MOL       0.000000
     19 H10          2.4650     2.2060     1.2310 h1         1 MOL       0.000000
     20 H11          1.9670     0.8540    -1.1400 h1         1 MOL       0.000000
@<TRIPOS>BOND
     1     1     2 1   
     2     1    10 1   
     3     1    11 1   
     4     1    12 1   
     5     2     3 1   
     6     2    13 1   
     7     2    14 1   
     8     3     4 1   
     9     3    15 1   
    10     3    16 1   
    11     4     5 1   
    12     4    17 1   
    13     4    18 1   
    14     5     6 1   
    15     5     9 1   
    16     6     7 1   
    17     6     7 1   
    18     7     8 1   
    19     8     9 1   
    20     8     9 1   
    21     8    19 1   
    22     9    20 1   
@<TRIPOS>SUBSTRUCTURE
     1 MOL         1 TEMP              0 ****  ****    0 ROOT
