@<TRIPOS>MOLECULE
MOL
   20    22     1     0     0
SMALL
No Charge or Current Charge


@<TRIPOS>ATOM
      1 C1          -2.1050     0.7450    -2.9520 c3         1 MOL       0.000000
      2 C2          -1.4280     0.5770    -1.5910 c3         1 MOL       0.000000
      3 C3          -0.9130    -0.8560    -1.3450 c3         1 MOL       0.000000
      4 C4           0.5360    -0.9330    -0.8720 c3         1 MOL       0.000000
      5 N1           0.7420    -0.3030     0.4240 n3         1 MOL       0.000000
      6 N2           0.1790    -0.8090     1.5010 n3         1 MOL       0.000000
      7 N3           0.5060    -0.0980     2.5020 n3         1 MOL       0.000000
      8 C5           1.3070     0.9060     2.0860 c3         1 MOL       0.000000
      9 C6           1.4680     0.7810     0.7430 c3         1 MOL       0.000000
     10 H1          -2.4640     1.7600    -3.0880 hc         1 MOL       0.000000
     11 H2          -2.9560     0.0770    -3.0530 hc         1 MOL       0.000000
     12 H3          -1.4150     0.5240    -3.7620 hc         1 MOL       0.000000
     13 H4          -0.6030     1.2820    -1.5290 hc         1 MOL       0.000000
     14 H5          -2.1170     0.8610    -0.8030 hc         1 MOL       0.000000
     15 H6          -1.5390    -1.3710    -0.6270 hc         1 MOL       0.000000
     16 H7          -0.9660    -1.4310    -2.2670 hc         1 MOL       0.000000
     17 H8           0.8540    -1.9640    -0.7900 h1         1 MOL       0.000000
     18 H9           1.1950    -0.4340    -1.5710 h1         1 MOL       0.000000
     19 H10          1.7060     1.6300     2.7620 h1         1 MOL       0.000000
     20 H11          2.0150     1.3450     0.0190 h1         1 MOL       0.000000
@<TRIPOS>BOND
     1     1     2 1   
     2     1    10 1   
     3     1    11 1   
     4     1    12 1   
     5     2     3 1   
     6     2    13 1   
     7     2    14 1   
     8     3     4 1   
     9     3    15 1   
    10     3    16 1   
    11     4     5 1   
    12     4    17 1   
    13     4    18 1   
    14     5     6 1   
    15     5     9 1   
    16     6     7 1   
    17     6     7 1   
    18     7     8 1   
    19     8     9 1   
    20     8     9 1   
    21     8    19 1   
    22     9    20 1   
@<TRIPOS>SUBSTRUCTURE
     1 MOL         1 TEMP              0 ****  ****    0 ROOT
