@<TRIPOS>MOLECULE								
MOL								
20	20	1	0	0				
SMALL								
No	Charge	or	Current	Charge				
@<TRIPOS>ATOM								
1	C1	-2.5120	1.0570	-0.9830	c3	1	MOL	-0.0574796410713743
2	C2	-2.0550	-0.3970	-1.1020	c3	1	MOL	0.0502276851611604
3	C3	-1.7180	-1.0440	0.2600	c3	1	MOL	0.029434866161889
4	C4	-0.2770	-1.5360	0.3840	c3	1	MOL	-0.1367489029942565
5	N1	0.6970	-0.4600	0.2870	na	1	MOL	0.3986932518358891
6	N2	0.7410	0.4790	1.2090	nc	1	MOL	-0.2502196049522864
7	N3	1.6690	1.2950	0.9140	nd	1	MOL	-0.3193359951280445
8	C5	2.2610	0.8930	-0.2310	cd	1	MOL	0.1155272094562996
9	C6	1.6410	-0.2440	-0.6430	cc	1	MOL	-0.3665531218424377
10	H1	-2.7330	1.4780	-1.9590	hc	1	MOL	0.0130890605865177
11	H2	-1.7460	1.6690	-0.5180	hc	1	MOL	0.0130890605865177
12	H3	-3.4110	1.1340	-0.3770	hc	1	MOL	0.0130890605865177
13	H4	-2.8300	-0.9760	-1.5970	hc	1	MOL	-0.0014480429946745
14	H5	-1.1900	-0.4390	-1.7580	hc	1	MOL	-0.0014480429946745
15	H6	-1.9050	-0.3450	1.0660	hc	1	MOL	0.013903235081947
16	H7	-2.3600	-1.9010	0.4420	hc	1	MOL	0.013903235081947
17	H8	-0.1280	-2.0310	1.3350	h1	1	MOL	0.0718422229084886
18	H9	-0.0410	-2.2430	-0.4010	h1	1	MOL	0.0718422229084886
19	H10	3.0730	1.4320	-0.6690	h4	1	MOL	0.1170117401835705
20	H11	1.7870	-0.8900	-1.4810	h4	1	MOL	0.2115805014385151
@<TRIPOS>BOND								
1	1	2	1					
2	1	10	1					
3	1	11	1					
4	1	12	1					
5	2	3	1					
6	2	13	1					
7	2	14	1					
8	3	4	1					
9	3	15	1					
10	3	16	1					
11	4	5	1					
12	4	17	1					
13	4	18	1					
14	5	6	1					
15	5	9	1					
16	6	7	2					
17	7	8	1					
18	8	9	2					
19	8	19	1					
20	9	20	1					
@<TRIPOS>SUBSTRUCTURE								
1	MOL	1	TEMP	0	****	****	0	ROOT
