@<TRIPOS>MOLECULE								
MOL								
20	20	1	0	0				
SMALL								
No	Charge	or	Current	Charge				
@<TRIPOS>ATOM								
1	C1	-1.9700	0.4850	-2.6800	c3	1	MOL	-0.0574796410713743
2	C2	-1.9770	0.1540	-1.1860	c3	1	MOL	0.0502276851611604
3	C3	-1.2760	-1.1670	-0.8420	c3	1	MOL	0.029434866161889
4	C4	0.2500	-1.0880	-0.7810	c3	1	MOL	-0.1367489029942565
5	N1	0.7310	-0.2350	0.2950	na	1	MOL	0.3986932518358891
6	N2	0.5820	-0.6060	1.5490	nc	1	MOL	-0.2502196049522864
7	N3	1.0750	0.2930	2.3000	nd	1	MOL	-0.3193359951280445
8	C5	1.5660	1.2880	1.5300	cd	1	MOL	0.1155272094562996
9	C6	1.3500	0.9550	0.2310	cc	1	MOL	-0.3665531218424377
10	H1	-2.4790	1.4240	-2.8720	hc	1	MOL	0.0130890605865177
11	H2	-2.4760	-0.2880	-3.2510	hc	1	MOL	0.0130890605865177
12	H3	-0.9610	0.5770	-3.0740	hc	1	MOL	0.0130890605865177
13	H4	-1.5340	0.9670	-0.6190	hc	1	MOL	-0.0014480429946745
14	H5	-3.0090	0.0890	-0.8540	hc	1	MOL	-0.0014480429946745
15	H6	-1.6230	-1.5270	0.1200	hc	1	MOL	0.013903235081947
16	H7	-1.5390	-1.9260	-1.5740	hc	1	MOL	0.013903235081947
17	H8	0.6670	-2.0730	-0.6240	h1	1	MOL	0.0718422229084886
18	H9	0.6650	-0.6970	-1.7010	h1	1	MOL	0.0718422229084886
19	H10	2.0320	2.1520	1.9510	h4	1	MOL	0.1170117401835705
20	H11	1.5770	1.4410	-0.6930	h4	1	MOL	0.2115805014385151
@<TRIPOS>BOND								
1	1	2	1					
2	1	10	1					
3	1	11	1					
4	1	12	1					
5	2	3	1					
6	2	13	1					
7	2	14	1					
8	3	4	1					
9	3	15	1					
10	3	16	1					
11	4	5	1					
12	4	17	1					
13	4	18	1					
14	5	6	1					
15	5	9	1					
16	6	7	2					
17	7	8	1					
18	8	9	2					
19	8	19	1					
20	9	20	1					
@<TRIPOS>SUBSTRUCTURE								
1	MOL	1	TEMP	0	****	****	0	ROOT
