@<TRIPOS>MOLECULE
MOL
   20    22     1     0     0
SMALL
No Charge or Current Charge


@<TRIPOS>ATOM
      1 C1          -1.8210     0.5400    -2.5940 c3         1 MOL       0.000000
      2 C2          -2.0100     0.0730    -1.1490 c3         1 MOL       0.000000
      3 C3          -1.2890    -1.2360    -0.8100 c3         1 MOL       0.000000
      4 C4           0.2370    -1.1470    -0.7540 c3         1 MOL       0.000000
      5 N1           0.7150    -0.2450     0.2820 n3         1 MOL       0.000000
      6 N2           0.5510    -0.5510     1.5520 n3         1 MOL       0.000000
      7 N3           1.0400     0.3830     2.2620 n3         1 MOL       0.000000
      8 C5           1.5500     1.3320     1.4480 c3         1 MOL       0.000000
      9 C6           1.3450     0.9340     0.1650 c3         1 MOL       0.000000
     10 H1          -2.3980     1.4380    -2.7870 hc         1 MOL       0.000000
     11 H2          -2.1490    -0.2210    -3.2970 hc         1 MOL       0.000000
     12 H3          -0.7840     0.7710    -2.8200 hc         1 MOL       0.000000
     13 H4          -1.6940     0.8530    -0.4630 hc         1 MOL       0.000000
     14 H5          -3.0710    -0.0730    -0.9680 hc         1 MOL       0.000000
     15 H6          -1.6360    -1.6000     0.1510 hc         1 MOL       0.000000
     16 H7          -1.5440    -1.9960    -1.5450 hc         1 MOL       0.000000
     17 H8           0.6560    -2.1240    -0.5540 h1         1 MOL       0.000000
     18 H9           0.6510    -0.7970    -1.6900 h1         1 MOL       0.000000
     19 H10          2.0190     2.2130     1.8290 h1         1 MOL       0.000000
     20 H11          1.5860     1.3710    -0.7800 h1         1 MOL       0.000000
@<TRIPOS>BOND
     1     1     2 1   
     2     1    10 1   
     3     1    11 1   
     4     1    12 1   
     5     2     3 1   
     6     2    13 1   
     7     2    14 1   
     8     3     4 1   
     9     3    15 1   
    10     3    16 1   
    11     4     5 1   
    12     4    17 1   
    13     4    18 1   
    14     5     6 1   
    15     5     9 1   
    16     6     7 1   
    17     6     7 1   
    18     7     8 1   
    19     8     9 1   
    20     8     9 1   
    21     8    19 1   
    22     9    20 1   
@<TRIPOS>SUBSTRUCTURE
     1 MOL         1 TEMP              0 ****  ****    0 ROOT
