@<TRIPOS>MOLECULE
MOL
   20    22     1     0     0
SMALL
No Charge or Current Charge


@<TRIPOS>ATOM
      1 C1          -2.0860     0.8700    -0.9970 c3         1 MOL       0.000000
      2 C2          -2.2210    -0.6550    -1.0020 c3         1 MOL       0.000000
      3 C3          -1.5880    -1.3790     0.1960 c3         1 MOL       0.000000
      4 C4          -0.0750    -1.5920     0.1380 c3         1 MOL       0.000000
      5 N1           0.7080    -0.3680     0.2060 n3         1 MOL       0.000000
      6 N2           0.6300     0.4150     1.2610 n3         1 MOL       0.000000
      7 N3           1.4110     1.4030     1.0930 n3         1 MOL       0.000000
      8 C5           2.0310     1.2750    -0.1000 c3         1 MOL       0.000000
      9 C6           1.5840     0.1310    -0.6810 c3         1 MOL       0.000000
     10 H1          -2.6370     1.2980    -1.8290 hc         1 MOL       0.000000
     11 H2          -1.0580     1.1980    -1.0800 hc         1 MOL       0.000000
     12 H3          -2.4910     1.2910    -0.0820 hc         1 MOL       0.000000
     13 H4          -3.2790    -0.9010    -1.0110 hc         1 MOL       0.000000
     14 H5          -1.8140    -1.0590    -1.9270 hc         1 MOL       0.000000
     15 H6          -1.8360    -0.8650     1.1180 hc         1 MOL       0.000000
     16 H7          -2.0210    -2.3740     0.2690 hc         1 MOL       0.000000
     17 H8           0.2350    -2.2240     0.9600 h1         1 MOL       0.000000
     18 H9           0.2040    -2.0870    -0.7830 h1         1 MOL       0.000000
     19 H10          2.7390     1.9940    -0.4510 h1         1 MOL       0.000000
     20 H11          1.8050    -0.3490    -1.6100 h1         1 MOL       0.000000
@<TRIPOS>BOND
     1     1     2 1   
     2     1    10 1   
     3     1    11 1   
     4     1    12 1   
     5     2     3 1   
     6     2    13 1   
     7     2    14 1   
     8     3     4 1   
     9     3    15 1   
    10     3    16 1   
    11     4     5 1   
    12     4    17 1   
    13     4    18 1   
    14     5     6 1   
    15     5     9 1   
    16     6     7 1   
    17     6     7 1   
    18     7     8 1   
    19     8     9 1   
    20     8     9 1   
    21     8    19 1   
    22     9    20 1   
@<TRIPOS>SUBSTRUCTURE
     1 MOL         1 TEMP              0 ****  ****    0 ROOT
