@<TRIPOS>MOLECULE
MOL
   20    22     1     0     0
SMALL
No Charge or Current Charge


@<TRIPOS>ATOM
      1 C1          -2.2700     0.9490    -2.6830 c3         1 MOL       0.000000
      2 C2          -1.0360     0.7810    -1.7970 c3         1 MOL       0.000000
      3 C3          -0.6610    -0.6880    -1.5890 c3         1 MOL       0.000000
      4 C4           0.6920    -0.8990    -0.9130 c3         1 MOL       0.000000
      5 N1           0.7450    -0.3660     0.4390 n3         1 MOL       0.000000
      6 N2           0.0620    -0.9450     1.4050 n3         1 MOL       0.000000
      7 N3           0.2500    -0.2960     2.4810 n3         1 MOL       0.000000
      8 C5           1.0850     0.7360     2.2320 c3         1 MOL       0.000000
      9 C6           1.4090     0.7000     0.9130 c3         1 MOL       0.000000
     10 H1          -2.5260     1.9970    -2.8010 hc         1 MOL       0.000000
     11 H2          -3.1320     0.4450    -2.2550 hc         1 MOL       0.000000
     12 H3          -2.1010     0.5340    -3.6720 hc         1 MOL       0.000000
     13 H4          -0.1990     1.3060    -2.2540 hc         1 MOL       0.000000
     14 H5          -1.2100     1.2540    -0.8350 hc         1 MOL       0.000000
     15 H6          -1.4280    -1.1920    -1.0100 hc         1 MOL       0.000000
     16 H7          -0.6140    -1.1900    -2.5530 hc         1 MOL       0.000000
     17 H8           0.9230    -1.9540    -0.8540 h1         1 MOL       0.000000
     18 H9           1.4800    -0.4140    -1.4740 h1         1 MOL       0.000000
     19 H10          1.3890     1.4170     2.9970 h1         1 MOL       0.000000
     20 H11          2.0310     1.3150     0.2990 h1         1 MOL       0.000000
@<TRIPOS>BOND
     1     1     2 1   
     2     1    10 1   
     3     1    11 1   
     4     1    12 1   
     5     2     3 1   
     6     2    13 1   
     7     2    14 1   
     8     3     4 1   
     9     3    15 1   
    10     3    16 1   
    11     4     5 1   
    12     4    17 1   
    13     4    18 1   
    14     5     6 1   
    15     5     9 1   
    16     6     7 1   
    17     6     7 1   
    18     7     8 1   
    19     8     9 1   
    20     8     9 1   
    21     8    19 1   
    22     9    20 1   
@<TRIPOS>SUBSTRUCTURE
     1 MOL         1 TEMP              0 ****  ****    0 ROOT
