@<TRIPOS>MOLECULE
MOL
   20    22     1     0     0
SMALL
No Charge or Current Charge


@<TRIPOS>ATOM
      1 C1          -2.1480     0.9360    -2.8710 c3         1 MOL       0.000000
      2 C2          -1.3200     0.7110    -1.6060 c3         1 MOL       0.000000
      3 C3          -0.8520    -0.7470    -1.4470 c3         1 MOL       0.000000
      4 C4           0.5730    -0.8950    -0.9190 c3         1 MOL       0.000000
      5 N1           0.7430    -0.3450     0.4170 n3         1 MOL       0.000000
      6 N2           0.1320    -0.9010     1.4430 n3         1 MOL       0.000000
      7 N3           0.4300    -0.2510     2.4940 n3         1 MOL       0.000000
      8 C5           1.2590     0.7610     2.1640 c3         1 MOL       0.000000
      9 C6           1.4690     0.7080     0.8230 c3         1 MOL       0.000000
     10 H1          -2.4810     1.9660    -2.9430 hc         1 MOL       0.000000
     11 H2          -3.0310     0.3030    -2.8830 hc         1 MOL       0.000000
     12 H3          -1.5680     0.7100    -3.7600 hc         1 MOL       0.000000
     13 H4          -0.4550     1.3710    -1.6440 hc         1 MOL       0.000000
     14 H5          -1.8860     1.0140    -0.7310 hc         1 MOL       0.000000
     15 H6          -1.5270    -1.2980    -0.8030 hc         1 MOL       0.000000
     16 H7          -0.8710    -1.2450    -2.4140 hc         1 MOL       0.000000
     17 H8           0.8560    -1.9390    -0.8830 h1         1 MOL       0.000000
     18 H9           1.2740    -0.3790    -1.5630 h1         1 MOL       0.000000
     19 H10          1.6420     1.4410     2.8940 h1         1 MOL       0.000000
     20 H11          2.0500     1.3030     0.1530 h1         1 MOL       0.000000
@<TRIPOS>BOND
     1     1     2 1   
     2     1    10 1   
     3     1    11 1   
     4     1    12 1   
     5     2     3 1   
     6     2    13 1   
     7     2    14 1   
     8     3     4 1   
     9     3    15 1   
    10     3    16 1   
    11     4     5 1   
    12     4    17 1   
    13     4    18 1   
    14     5     6 1   
    15     5     9 1   
    16     6     7 1   
    17     6     7 1   
    18     7     8 1   
    19     8     9 1   
    20     8     9 1   
    21     8    19 1   
    22     9    20 1   
@<TRIPOS>SUBSTRUCTURE
     1 MOL         1 TEMP              0 ****  ****    0 ROOT
