@<TRIPOS>MOLECULE								
MOL								
20	20	1	0	0				
SMALL								
No	Charge	or	Current	Charge				
@<TRIPOS>ATOM								
1	C1	-1.7080	0.5610	-2.0480	c3	1	MOL	-0.0574796410713743
2	C2	-2.2780	-0.3980	-1.0000	c3	1	MOL	0.0502276851611604
3	C3	-1.3330	-1.5020	-0.4700	c3	1	MOL	0.029434866161889
4	C4	0.1700	-1.2890	-0.6330	c3	1	MOL	-0.1367489029942565
5	N1	0.6970	-0.2010	0.1830	na	1	MOL	0.3986932518358891
6	N2	0.3680	-0.0940	1.4530	nc	1	MOL	-0.2502196049522864
7	N3	1.0110	0.8780	1.9600	nd	1	MOL	-0.3193359951280445
8	C5	1.7970	1.4280	1.0090	cd	1	MOL	0.1155272094562996
9	C6	1.6040	0.7340	-0.1420	cc	1	MOL	-0.3665531218424377
10	H1	-2.4790	1.2520	-2.3720	hc	1	MOL	0.0130890605865177
11	H2	-1.3520	0.0370	-2.9330	hc	1	MOL	0.0130890605865177
12	H3	-0.8900	1.1510	-1.6510	hc	1	MOL	0.0130890605865177
13	H4	-2.6150	0.2000	-0.1590	hc	1	MOL	-0.0014480429946745
14	H5	-3.1670	-0.8770	-1.4000	hc	1	MOL	-0.0014480429946745
15	H6	-1.5460	-1.6970	0.5720	hc	1	MOL	0.013903235081947
16	H7	-1.5420	-2.4280	-1.0010	hc	1	MOL	0.013903235081947
17	H8	0.6900	-2.1980	-0.3540	h1	1	MOL	0.0718422229084886
18	H9	0.4300	-1.0650	-1.6580	h1	1	MOL	0.0718422229084886
19	H10	2.4280	2.2650	1.2110	h4	1	MOL	0.1170117401835705
20	H11	2.0150	0.8240	-1.1240	h4	1	MOL	0.2115805014385151
@<TRIPOS>BOND								
1	1	2	1					
2	1	10	1					
3	1	11	1					
4	1	12	1					
5	2	3	1					
6	2	13	1					
7	2	14	1					
8	3	4	1					
9	3	15	1					
10	3	16	1					
11	4	5	1					
12	4	17	1					
13	4	18	1					
14	5	6	1					
15	5	9	1					
16	6	7	2					
17	7	8	1					
18	8	9	2					
19	8	19	1					
20	9	20	1					
@<TRIPOS>SUBSTRUCTURE								
1	MOL	1	TEMP	0	****	****	0	ROOT
