@<TRIPOS>MOLECULE
MOL
   20    22     1     0     0
SMALL
No Charge or Current Charge


@<TRIPOS>ATOM
      1 C1          -1.8170     0.6690    -1.4790 c3         1 MOL       0.000000
      2 C2          -2.3800    -0.6260    -0.8870 c3         1 MOL       0.000000
      3 C3          -1.3980    -1.5730    -0.1520 c3         1 MOL       0.000000
      4 C4           0.0970    -1.4390    -0.4450 c3         1 MOL       0.000000
      5 N1           0.7060    -0.2400     0.1140 n3         1 MOL       0.000000
      6 N2           0.4550     0.1350     1.3510 n3         1 MOL       0.000000
      7 N3           1.1590     1.1590     1.6180 n3         1 MOL       0.000000
      8 C5           1.9060     1.4710     0.5370 c3         1 MOL       0.000000
      9 C6           1.6240     0.5690    -0.4380 c3         1 MOL       0.000000
     10 H1          -2.6130     1.2140    -1.9780 hc         1 MOL       0.000000
     11 H2          -1.0480     0.4770    -2.2200 hc         1 MOL       0.000000
     12 H3          -1.3990     1.3190    -0.7190 hc         1 MOL       0.000000
     13 H4          -3.1860    -0.3800    -0.2040 hc         1 MOL       0.000000
     14 H5          -2.8410    -1.1790    -1.7010 hc         1 MOL       0.000000
     15 H6          -1.5200    -1.4660     0.9180 hc         1 MOL       0.000000
     16 H7          -1.6660    -2.6000    -0.3830 hc         1 MOL       0.000000
     17 H8           0.6130    -2.2970    -0.0310 h1         1 MOL       0.000000
     18 H9           0.2970    -1.4230    -1.5080 h1         1 MOL       0.000000
     19 H10          2.5770     2.3020     0.5330 h1         1 MOL       0.000000
     20 H11          1.9780     0.4440    -1.4380 h1         1 MOL       0.000000
@<TRIPOS>BOND
     1     1     2 1   
     2     1    10 1   
     3     1    11 1   
     4     1    12 1   
     5     2     3 1   
     6     2    13 1   
     7     2    14 1   
     8     3     4 1   
     9     3    15 1   
    10     3    16 1   
    11     4     5 1   
    12     4    17 1   
    13     4    18 1   
    14     5     6 1   
    15     5     9 1   
    16     6     7 1   
    17     6     7 1   
    18     7     8 1   
    19     8     9 1   
    20     8     9 1   
    21     8    19 1   
    22     9    20 1   
@<TRIPOS>SUBSTRUCTURE
     1 MOL         1 TEMP              0 ****  ****    0 ROOT
