@<TRIPOS>MOLECULE								
MOL								
20	20	1	0	0				
SMALL								
No	Charge	or	Current	Charge				
@<TRIPOS>ATOM								
1	C1	-2.0520	0.6170	-2.9310	c3	1	MOL	-0.0574796410713743
2	C2	-1.6620	0.4310	-1.4640	c3	1	MOL	0.0502276851611604
3	C3	-1.0780	-0.9660	-1.1620	c3	1	MOL	0.029434866161889
4	C4	0.4180	-0.9700	-0.8470	c3	1	MOL	-0.1367489029942565
5	N1	0.7390	-0.2670	0.3860	na	1	MOL	0.3986932518358891
6	N2	0.3260	-0.7400	1.5430	nc	1	MOL	-0.2502196049522864
7	N3	0.7320	0.0330	2.4660	nd	1	MOL	-0.3193359951280445
8	C5	1.4370	1.0440	1.9150	cd	1	MOL	0.1155272094562996
9	C6	1.4490	0.8580	0.5690	cc	1	MOL	-0.3665531218424377
10	H1	-2.4500	1.6100	-3.1080	hc	1	MOL	0.0130890605865177
11	H2	-2.8100	-0.1030	-3.2260	hc	1	MOL	0.0130890605865177
12	H3	-1.1970	0.4820	-3.5890	hc	1	MOL	0.0130890605865177
13	H4	-0.9540	1.2030	-1.1770	hc	1	MOL	-0.0014480429946745
14	H5	-2.5380	0.5960	-0.8460	hc	1	MOL	-0.0014480429946745
15	H6	-1.5920	-1.4210	-0.3240	hc	1	MOL	0.013903235081947
16	H7	-1.2290	-1.6260	-2.0120	hc	1	MOL	0.013903235081947
17	H8	0.7780	-1.9860	-0.7470	h1	1	MOL	0.0718422229084886
18	H9	0.9840	-0.4920	-1.6370	h1	1	MOL	0.0718422229084886
19	H10	1.8780	1.8160	2.5070	h4	1	MOL	0.1170117401835705
20	H11	1.8860	1.4040	-0.2370	h4	1	MOL	0.2115805014385151
@<TRIPOS>BOND								
1	1	2	1					
2	1	10	1					
3	1	11	1					
4	1	12	1					
5	2	3	1					
6	2	13	1					
7	2	14	1					
8	3	4	1					
9	3	15	1					
10	3	16	1					
11	4	5	1					
12	4	17	1					
13	4	18	1					
14	5	6	1					
15	5	9	1					
16	6	7	2					
17	7	8	1					
18	8	9	2					
19	8	19	1					
20	9	20	1					
@<TRIPOS>SUBSTRUCTURE								
1	MOL	1	TEMP	0	****	****	0	ROOT
