@<TRIPOS>MOLECULE
MOL
   20    22     1     0     0
SMALL
No Charge or Current Charge


@<TRIPOS>ATOM
      1 C1          -2.2800     0.9610    -2.7170 c3         1 MOL       0.000000
      2 C2          -1.1500     0.7720    -1.7050 c3         1 MOL       0.000000
      3 C3          -0.7570    -0.6990    -1.5300 c3         1 MOL       0.000000
      4 C4           0.6290    -0.9090    -0.9250 c3         1 MOL       0.000000
      5 N1           0.7520    -0.3690     0.4200 n3         1 MOL       0.000000
      6 N2           0.1220    -0.9450     1.4230 n3         1 MOL       0.000000
      7 N3           0.3660    -0.2910     2.4850 n3         1 MOL       0.000000
      8 C5           1.1760     0.7470     2.1860 c3         1 MOL       0.000000
      9 C6           1.4310     0.7050     0.8520 c3         1 MOL       0.000000
     10 H1          -2.5610     2.0060    -2.7980 hc         1 MOL       0.000000
     11 H2          -3.1660     0.4020    -2.4270 hc         1 MOL       0.000000
     12 H3          -1.9810     0.6190    -3.7030 hc         1 MOL       0.000000
     13 H4          -0.2850     1.3400    -2.0430 hc         1 MOL       0.000000
     14 H5          -1.4370     1.1920    -0.7460 hc         1 MOL       0.000000
     15 H6          -1.4930    -1.2170    -0.9250 hc         1 MOL       0.000000
     16 H7          -0.7480    -1.1890    -2.5010 hc         1 MOL       0.000000
     17 H8           0.8630    -1.9640    -0.8730 h1         1 MOL       0.000000
     18 H9           1.3860    -0.4270    -1.5290 h1         1 MOL       0.000000
     19 H10          1.5140     1.4340     2.9300 h1         1 MOL       0.000000
     20 H11          2.0160     1.3200     0.2030 h1         1 MOL       0.000000
@<TRIPOS>BOND
     1     1     2 1   
     2     1    10 1   
     3     1    11 1   
     4     1    12 1   
     5     2     3 1   
     6     2    13 1   
     7     2    14 1   
     8     3     4 1   
     9     3    15 1   
    10     3    16 1   
    11     4     5 1   
    12     4    17 1   
    13     4    18 1   
    14     5     6 1   
    15     5     9 1   
    16     6     7 1   
    17     6     7 1   
    18     7     8 1   
    19     8     9 1   
    20     8     9 1   
    21     8    19 1   
    22     9    20 1   
@<TRIPOS>SUBSTRUCTURE
     1 MOL         1 TEMP              0 ****  ****    0 ROOT
