@<TRIPOS>MOLECULE								
MOL								
20	20	1	0	0				
SMALL								
No	Charge	or	Current	Charge				
@<TRIPOS>ATOM								
1	C1	-2.5490	1.0910	-0.8300	c3	1	MOL	-0.0574796410713743
2	C2	-2.1080	-0.3630	-1.0070	c3	1	MOL	0.0502276851611604
3	C3	-1.7080	-1.0440	0.3200	c3	1	MOL	0.029434866161889
4	C4	-0.2650	-1.5450	0.3630	c3	1	MOL	-0.1367489029942565
5	N1	0.7090	-0.4720	0.2420	na	1	MOL	0.3986932518358891
6	N2	0.8200	0.4310	1.1940	nc	1	MOL	-0.2502196049522864
7	N3	1.7230	1.2620	0.8630	nd	1	MOL	-0.3193359951280445
8	C5	2.2390	0.8980	-0.3310	cd	1	MOL	0.1155272094562996
9	C6	1.5880	-0.2210	-0.7420	cc	1	MOL	-0.3665531218424377
10	H1	-2.8170	1.5360	-1.7830	hc	1	MOL	0.0130890605865177
11	H2	-1.7560	1.6870	-0.3900	hc	1	MOL	0.0130890605865177
12	H3	-3.4150	1.1580	-0.1780	hc	1	MOL	0.0130890605865177
13	H4	-2.9100	-0.9250	-1.4770	hc	1	MOL	-0.0014480429946745
14	H5	-1.2770	-0.3920	-1.7060	hc	1	MOL	-0.0014480429946745
15	H6	-1.8500	-0.3630	1.1520	hc	1	MOL	0.013903235081947
16	H7	-2.3460	-1.9010	0.5150	hc	1	MOL	0.013903235081947
17	H8	-0.0730	-2.0600	1.2960	h1	1	MOL	0.0718422229084886
18	H9	-0.0710	-2.2370	-0.4460	h1	1	MOL	0.0718422229084886
19	H10	3.0220	1.4520	-0.8020	h4	1	MOL	0.1170117401835705
20	H11	1.6760	-0.8360	-1.6110	h4	1	MOL	0.2115805014385151
@<TRIPOS>BOND								
1	1	2	1					
2	1	10	1					
3	1	11	1					
4	1	12	1					
5	2	3	1					
6	2	13	1					
7	2	14	1					
8	3	4	1					
9	3	15	1					
10	3	16	1					
11	4	5	1					
12	4	17	1					
13	4	18	1					
14	5	6	1					
15	5	9	1					
16	6	7	2					
17	7	8	1					
18	8	9	2					
19	8	19	1					
20	9	20	1					
@<TRIPOS>SUBSTRUCTURE								
1	MOL	1	TEMP	0	****	****	0	ROOT
