@<TRIPOS>MOLECULE
MOL
   20    22     1     0     0
SMALL
No Charge or Current Charge


@<TRIPOS>ATOM
      1 C1          -3.1190     1.1410    -0.8380 c3         1 MOL       0.000000
      2 C2          -2.0940     0.0120    -0.9430 c3         1 MOL       0.000000
      3 C3          -1.7580    -0.6070     0.4180 c3         1 MOL       0.000000
      4 C4          -0.4390    -1.3780     0.4500 c3         1 MOL       0.000000
      5 N1           0.7220    -0.5240     0.2490 n3         1 MOL       0.000000
      6 N2           1.0550     0.3650     1.1610 n3         1 MOL       0.000000
      7 N3           2.0970     0.9780     0.7700 n3         1 MOL       0.000000
      8 C5           2.4710     0.4860    -0.4310 c3         1 MOL       0.000000
      9 C6           1.5890    -0.4880    -0.7750 c3         1 MOL       0.000000
     10 H1          -3.3580     1.5450    -1.8160 hc         1 MOL       0.000000
     11 H2          -2.7350     1.9520    -0.2280 hc         1 MOL       0.000000
     12 H3          -4.0450     0.7970    -0.3870 hc         1 MOL       0.000000
     13 H4          -2.4570    -0.7600    -1.6170 hc         1 MOL       0.000000
     14 H5          -1.1910     0.4140    -1.3920 hc         1 MOL       0.000000
     15 H6          -1.7050     0.1680     1.1750 hc         1 MOL       0.000000
     16 H7          -2.5510    -1.2860     0.7220 hc         1 MOL       0.000000
     17 H8          -0.3170    -1.8740     1.4030 h1         1 MOL       0.000000
     18 H9          -0.4090    -2.1350    -0.3240 h1         1 MOL       0.000000
     19 H10          3.3280     0.8540    -0.9510 h1         1 MOL       0.000000
     20 H11          1.5100    -1.1310    -1.6240 h1         1 MOL       0.000000
@<TRIPOS>BOND
     1     1     2 1   
     2     1    10 1   
     3     1    11 1   
     4     1    12 1   
     5     2     3 1   
     6     2    13 1   
     7     2    14 1   
     8     3     4 1   
     9     3    15 1   
    10     3    16 1   
    11     4     5 1   
    12     4    17 1   
    13     4    18 1   
    14     5     6 1   
    15     5     9 1   
    16     6     7 1   
    17     6     7 1   
    18     7     8 1   
    19     8     9 1   
    20     8     9 1   
    21     8    19 1   
    22     9    20 1   
@<TRIPOS>SUBSTRUCTURE
     1 MOL         1 TEMP              0 ****  ****    0 ROOT
