@<TRIPOS>MOLECULE								
MOL								
20	20	1	0	0				
SMALL								
No	Charge	or	Current	Charge				
@<TRIPOS>ATOM								
1	C1	-1.9870	0.4650	-2.8150	c3	1	MOL	-0.0574796410713743
2	C2	-1.8770	0.2400	-1.3060	c3	1	MOL	0.0502276851611604
3	C3	-1.2240	-1.1010	-0.9340	c3	1	MOL	0.029434866161889
4	C4	0.2970	-1.0490	-0.7890	c3	1	MOL	-0.1367489029942565
5	N1	0.7320	-0.2370	0.3360	na	1	MOL	0.3986932518358891
6	N2	0.5020	-0.6390	1.5690	nc	1	MOL	-0.2502196049522864
7	N3	0.9680	0.2270	2.3730	nd	1	MOL	-0.3193359951280445
8	C5	1.5300	1.2290	1.6620	cd	1	MOL	0.1155272094562996
9	C6	1.3820	0.9380	0.3440	cc	1	MOL	-0.3665531218424377
10	H1	-2.4390	1.4260	-3.0360	hc	1	MOL	0.0130890605865177
11	H2	-2.6000	-0.3040	-3.2760	hc	1	MOL	0.0130890605865177
12	H3	-1.0140	0.4430	-3.3000	hc	1	MOL	0.0130890605865177
13	H4	-1.3350	1.0590	-0.8430	hc	1	MOL	-0.0014480429946745
14	H5	-2.8760	0.2710	-0.8820	hc	1	MOL	-0.0014480429946745
15	H6	-1.6260	-1.4640	0.0050	hc	1	MOL	0.013903235081947
16	H7	-1.4610	-1.8500	-1.6850	hc	1	MOL	0.013903235081947
17	H8	0.6930	-2.0440	-0.6420	h1	1	MOL	0.0718422229084886
18	H9	0.7650	-0.6340	-1.6740	h1	1	MOL	0.0718422229084886
19	H10	1.9920	2.0680	2.1350	h4	1	MOL	0.1170117401835705
20	H11	1.6740	1.4440	-0.5510	h4	1	MOL	0.2115805014385151
@<TRIPOS>BOND								
1	1	2	1					
2	1	10	1					
3	1	11	1					
4	1	12	1					
5	2	3	1					
6	2	13	1					
7	2	14	1					
8	3	4	1					
9	3	15	1					
10	3	16	1					
11	4	5	1					
12	4	17	1					
13	4	18	1					
14	5	6	1					
15	5	9	1					
16	6	7	2					
17	7	8	1					
18	8	9	2					
19	8	19	1					
20	9	20	1					
@<TRIPOS>SUBSTRUCTURE								
1	MOL	1	TEMP	0	****	****	0	ROOT
