@<TRIPOS>MOLECULE								
MOL								
20	20	1	0	0				
SMALL								
No	Charge	or	Current	Charge				
@<TRIPOS>ATOM								
1	C1	-1.7600	0.5530	-2.3060	c3	1	MOL	-0.0574796410713743
2	C2	-2.1520	-0.1040	-0.9810	c3	1	MOL	0.0502276851611604
3	C3	-1.3570	-1.3640	-0.6160	c3	1	MOL	0.029434866161889
4	C4	0.1640	-1.2440	-0.6930	c3	1	MOL	-0.1367489029942565
5	N1	0.7020	-0.2420	0.2170	na	1	MOL	0.3986932518358891
6	N2	0.4960	-0.3450	1.5140	nc	1	MOL	-0.2502196049522864
7	N3	1.0790	0.6220	2.0960	nd	1	MOL	-0.3193359951280445
8	C5	1.6950	1.3860	1.1700	cd	1	MOL	0.1155272094562996
9	C6	1.4580	0.8350	-0.0490	cc	1	MOL	-0.3665531218424377
10	H1	-2.4470	1.3570	-2.5480	hc	1	MOL	0.0130890605865177
11	H2	-1.7860	-0.1590	-3.1280	hc	1	MOL	0.0130890605865177
12	H3	-0.7660	0.9830	-2.2680	hc	1	MOL	0.0130890605865177
13	H4	-2.0500	0.6250	-0.1830	hc	1	MOL	-0.0014480429946745
14	H5	-3.2030	-0.3740	-1.0110	hc	1	MOL	-0.0014480429946745
15	H6	-1.6300	-1.6850	0.3820	hc	1	MOL	0.013903235081947
16	H7	-1.6330	-2.1710	-1.2920	hc	1	MOL	0.013903235081947
17	H8	0.6190	-2.1950	-0.4470	h1	1	MOL	0.0718422229084886
18	H9	0.4900	-0.9710	-1.6870	h1	1	MOL	0.0718422229084886
19	H10	2.2520	2.2580	1.4340	h4	1	MOL	0.1170117401835705
20	H11	1.7540	1.1050	-1.0390	h4	1	MOL	0.2115805014385151
@<TRIPOS>BOND								
1	1	2	1					
2	1	10	1					
3	1	11	1					
4	1	12	1					
5	2	3	1					
6	2	13	1					
7	2	14	1					
8	3	4	1					
9	3	15	1					
10	3	16	1					
11	4	5	1					
12	4	17	1					
13	4	18	1					
14	5	6	1					
15	5	9	1					
16	6	7	2					
17	7	8	1					
18	8	9	2					
19	8	19	1					
20	9	20	1					
@<TRIPOS>SUBSTRUCTURE								
1	MOL	1	TEMP	0	****	****	0	ROOT
