@<TRIPOS>MOLECULE								
MOL								
20	20	1	0	0				
SMALL								
No	Charge	or	Current	Charge				
@<TRIPOS>ATOM								
1	C1	-1.9030	0.4200	-2.7280	c3	1	MOL	-0.0574796410713743
2	C2	-1.9500	0.1220	-1.2280	c3	1	MOL	0.0502276851611604
3	C3	-1.2610	-1.1910	-0.8350	c3	1	MOL	0.029434866161889
4	C4	0.2640	-1.1160	-0.7430	c3	1	MOL	-0.1367489029942565
5	N1	0.7250	-0.2310	0.3160	na	1	MOL	0.3986932518358891
6	N2	0.5560	-0.5660	1.5780	nc	1	MOL	-0.2502196049522864
7	N3	1.0290	0.3580	2.3100	nd	1	MOL	-0.3193359951280445
8	C5	1.5270	1.3340	1.5200	cd	1	MOL	0.1155272094562996
9	C6	1.3350	0.9610	0.2280	cc	1	MOL	-0.3665531218424377
10	H1	-2.4130	1.3510	-2.9540	hc	1	MOL	0.0130890605865177
11	H2	-2.3870	-0.3690	-3.2960	hc	1	MOL	0.0130890605865177
12	H3	-0.8840	0.5130	-3.0950	hc	1	MOL	0.0130890605865177
13	H4	-1.5230	0.9470	-0.6660	hc	1	MOL	-0.0014480429946745
14	H5	-2.9910	0.0630	-0.9240	hc	1	MOL	-0.0014480429946745
15	H6	-1.6290	-1.5230	0.1300	hc	1	MOL	0.013903235081947
16	H7	-1.5120	-1.9690	-1.5510	hc	1	MOL	0.013903235081947
17	H8	0.6730	-2.0970	-0.5450	h1	1	MOL	0.0718422229084886
18	H9	0.7010	-0.7570	-1.6650	h1	1	MOL	0.0718422229084886
19	H10	1.9800	2.2130	1.9230	h4	1	MOL	0.1170117401835705
20	H11	1.5740	1.4220	-0.7060	h4	1	MOL	0.2115805014385151
@<TRIPOS>BOND								
1	1	2	1					
2	1	10	1					
3	1	11	1					
4	1	12	1					
5	2	3	1					
6	2	13	1					
7	2	14	1					
8	3	4	1					
9	3	15	1					
10	3	16	1					
11	4	5	1					
12	4	17	1					
13	4	18	1					
14	5	6	1					
15	5	9	1					
16	6	7	2					
17	7	8	1					
18	8	9	2					
19	8	19	1					
20	9	20	1					
@<TRIPOS>SUBSTRUCTURE								
1	MOL	1	TEMP	0	****	****	0	ROOT
