@<TRIPOS>MOLECULE
MOL
   20    22     1     0     0
SMALL
No Charge or Current Charge


@<TRIPOS>ATOM
      1 C1          -1.8700     0.4750    -2.5730 c3         1 MOL       0.000000
      2 C2          -2.0300     0.0420    -1.1150 c3         1 MOL       0.000000
      3 C3          -1.2990    -1.2560    -0.7580 c3         1 MOL       0.000000
      4 C4           0.2270    -1.1620    -0.7330 c3         1 MOL       0.000000
      5 N1           0.7220    -0.2370     0.2740 n3         1 MOL       0.000000
      6 N2           0.5960    -0.5230     1.5530 n3         1 MOL       0.000000
      7 N3           1.0920     0.4280     2.2340 n3         1 MOL       0.000000
      8 C5           1.5600     1.3740     1.3910 c3         1 MOL       0.000000
      9 C6           1.3270     0.9520     0.1200 c3         1 MOL       0.000000
     10 H1          -2.4490     1.3700    -2.7750 hc         1 MOL       0.000000
     11 H2          -2.2140    -0.3010    -3.2510 hc         1 MOL       0.000000
     12 H3          -0.8370     0.6970    -2.8250 hc         1 MOL       0.000000
     13 H4          -1.7050     0.8400    -0.4530 hc         1 MOL       0.000000
     14 H5          -3.0870    -0.1030    -0.9110 hc         1 MOL       0.000000
     15 H6          -1.6260    -1.5980     0.2180 hc         1 MOL       0.000000
     16 H7          -1.5660    -2.0340    -1.4690 hc         1 MOL       0.000000
     17 H8           0.6530    -2.1330    -0.5200 h1         1 MOL       0.000000
     18 H9           0.6220    -0.8310    -1.6840 h1         1 MOL       0.000000
     19 H10          2.0250     2.2680     1.7450 h1         1 MOL       0.000000
     20 H11          1.5330     1.3770    -0.8370 h1         1 MOL       0.000000
@<TRIPOS>BOND
     1     1     2 1   
     2     1    10 1   
     3     1    11 1   
     4     1    12 1   
     5     2     3 1   
     6     2    13 1   
     7     2    14 1   
     8     3     4 1   
     9     3    15 1   
    10     3    16 1   
    11     4     5 1   
    12     4    17 1   
    13     4    18 1   
    14     5     6 1   
    15     5     9 1   
    16     6     7 1   
    17     6     7 1   
    18     7     8 1   
    19     8     9 1   
    20     8     9 1   
    21     8    19 1   
    22     9    20 1   
@<TRIPOS>SUBSTRUCTURE
     1 MOL         1 TEMP              0 ****  ****    0 ROOT
