@<TRIPOS>MOLECULE
MOL
   20    22     1     0     0
SMALL
No Charge or Current Charge


@<TRIPOS>ATOM
      1 C1          -1.7400     0.5420    -1.9400 c3         1 MOL       0.000000
      2 C2          -2.3240    -0.4830    -0.9650 c3         1 MOL       0.000000
      3 C3          -1.3530    -1.5290    -0.3570 c3         1 MOL       0.000000
      4 C4           0.1470    -1.3320    -0.5690 c3         1 MOL       0.000000
      5 N1           0.7000    -0.2020     0.1700 n3         1 MOL       0.000000
      6 N2           0.3950    -0.0090     1.4360 n3         1 MOL       0.000000
      7 N3           1.0610     0.9820     1.8700 n3         1 MOL       0.000000
      8 C5           1.8370     1.4590     0.8730 c3         1 MOL       0.000000
      9 C6           1.6150     0.6970    -0.2290 c3         1 MOL       0.000000
     10 H1          -2.5320     1.1870    -2.3070 hc         1 MOL       0.000000
     11 H2          -1.2840     0.0720    -2.8080 hc         1 MOL       0.000000
     12 H3          -0.9990     1.1740    -1.4670 hc         1 MOL       0.000000
     13 H4          -2.7850     0.0680    -0.1520 hc         1 MOL       0.000000
     14 H5          -3.1320    -1.0150    -1.4570 hc         1 MOL       0.000000
     15 H6          -1.5370    -1.6290     0.7040 hc         1 MOL       0.000000
     16 H7          -1.5690    -2.5010    -0.7930 hc         1 MOL       0.000000
     17 H8           0.6690    -2.2250    -0.2480 h1         1 MOL       0.000000
     18 H9           0.3850    -1.1700    -1.6100 h1         1 MOL       0.000000
     19 H10          2.4830     2.2980     1.0110 h1         1 MOL       0.000000
     20 H11          2.0090     0.7200    -1.2210 h1         1 MOL       0.000000
@<TRIPOS>BOND
     1     1     2 1   
     2     1    10 1   
     3     1    11 1   
     4     1    12 1   
     5     2     3 1   
     6     2    13 1   
     7     2    14 1   
     8     3     4 1   
     9     3    15 1   
    10     3    16 1   
    11     4     5 1   
    12     4    17 1   
    13     4    18 1   
    14     5     6 1   
    15     5     9 1   
    16     6     7 1   
    17     6     7 1   
    18     7     8 1   
    19     8     9 1   
    20     8     9 1   
    21     8    19 1   
    22     9    20 1   
@<TRIPOS>SUBSTRUCTURE
     1 MOL         1 TEMP              0 ****  ****    0 ROOT
