@<TRIPOS>MOLECULE								
MOL								
20	20	1	0	0				
SMALL								
No	Charge	or	Current	Charge				
@<TRIPOS>ATOM								
1	C1	-2.9570	1.1120	-1.0110	c3	1	MOL	-0.0574796410713743
2	C2	-2.0540	-0.1190	-1.0750	c3	1	MOL	0.0502276851611604
3	C3	-1.7670	-0.7200	0.3100	c3	1	MOL	0.029434866161889
4	C4	-0.4130	-1.4190	0.4260	c3	1	MOL	-0.1367489029942565
5	N1	0.7100	-0.5030	0.2920	na	1	MOL	0.3986932518358891
6	N2	0.9080	0.4380	1.1920	nc	1	MOL	-0.2502196049522864
7	N3	1.9480	1.0930	0.8710	nd	1	MOL	-0.3193359951280445
8	C5	2.4610	0.5770	-0.2660	cd	1	MOL	0.1155272094562996
9	C6	1.6670	-0.4580	-0.6480	cc	1	MOL	-0.3665531218424377
10	H1	-3.1650	1.4960	-2.0040	hc	1	MOL	0.0130890605865177
11	H2	-2.4850	1.9030	-0.4380	hc	1	MOL	0.0130890605865177
12	H3	-3.9080	0.8810	-0.5390	hc	1	MOL	0.0130890605865177
13	H4	-2.4980	-0.8760	-1.7180	hc	1	MOL	-0.0014480429946745
14	H5	-1.1190	0.1710	-1.5470	hc	1	MOL	-0.0014480429946745
15	H6	-1.8000	0.0580	1.0650	hc	1	MOL	0.013903235081947
16	H7	-2.5370	-1.4400	0.5730	hc	1	MOL	0.013903235081947
17	H8	-0.3250	-1.9080	1.3870	h1	1	MOL	0.0718422229084886
18	H9	-0.2960	-2.1720	-0.3430	h1	1	MOL	0.0718422229084886
19	H10	3.3430	0.9720	-0.7210	h4	1	MOL	0.1170117401835705
20	H11	1.7020	-1.1370	-1.4720	h4	1	MOL	0.2115805014385151
@<TRIPOS>BOND								
1	1	2	1					
2	1	10	1					
3	1	11	1					
4	1	12	1					
5	2	3	1					
6	2	13	1					
7	2	14	1					
8	3	4	1					
9	3	15	1					
10	3	16	1					
11	4	5	1					
12	4	17	1					
13	4	18	1					
14	5	6	1					
15	5	9	1					
16	6	7	2					
17	7	8	1					
18	8	9	2					
19	8	19	1					
20	9	20	1					
@<TRIPOS>SUBSTRUCTURE								
1	MOL	1	TEMP	0	****	****	0	ROOT
