@<TRIPOS>MOLECULE
MOL
   20    22     1     0     0
SMALL
No Charge or Current Charge


@<TRIPOS>ATOM
      1 C1          -2.2090     0.7830    -2.8300 c3         1 MOL       0.000000
      2 C2          -1.1140     0.6720    -1.7700 c3         1 MOL       0.000000
      3 C3          -0.6700    -0.7760    -1.5330 c3         1 MOL       0.000000
      4 C4           0.6990    -0.9110    -0.8720 c3         1 MOL       0.000000
      5 N1           0.7480    -0.3240     0.4590 n3         1 MOL       0.000000
      6 N2           0.0770    -0.8760     1.4490 n3         1 MOL       0.000000
      7 N3           0.2640    -0.1870     2.5000 n3         1 MOL       0.000000
      8 C5           1.0780     0.8490     2.2070 c3         1 MOL       0.000000
      9 C6           1.3970     0.7690     0.8880 c3         1 MOL       0.000000
     10 H1          -2.5250     1.8130    -2.9580 hc         1 MOL       0.000000
     11 H2          -3.0840     0.2010    -2.5540 hc         1 MOL       0.000000
     12 H3          -1.8590     0.4200    -3.7920 hc         1 MOL       0.000000
     13 H4          -0.2590     1.2650    -2.0900 hc         1 MOL       0.000000
     14 H5          -1.4560     1.1070    -0.8360 hc         1 MOL       0.000000
     15 H6          -1.4080    -1.3030    -0.9370 hc         1 MOL       0.000000
     16 H7          -0.6070    -1.2980    -2.4860 hc         1 MOL       0.000000
     17 H8           0.9740    -1.9530    -0.7790 h1         1 MOL       0.000000
     18 H9           1.4590    -0.4150    -1.4620 h1         1 MOL       0.000000
     19 H10          1.3740     1.5630     2.9440 h1         1 MOL       0.000000
     20 H11          2.0060     1.3700     0.2490 h1         1 MOL       0.000000
@<TRIPOS>BOND
     1     1     2 1   
     2     1    10 1   
     3     1    11 1   
     4     1    12 1   
     5     2     3 1   
     6     2    13 1   
     7     2    14 1   
     8     3     4 1   
     9     3    15 1   
    10     3    16 1   
    11     4     5 1   
    12     4    17 1   
    13     4    18 1   
    14     5     6 1   
    15     5     9 1   
    16     6     7 1   
    17     6     7 1   
    18     7     8 1   
    19     8     9 1   
    20     8     9 1   
    21     8    19 1   
    22     9    20 1   
@<TRIPOS>SUBSTRUCTURE
     1 MOL         1 TEMP              0 ****  ****    0 ROOT
