@<TRIPOS>MOLECULE								
MOL								
20	20	1	0	0				
SMALL								
No	Charge	or	Current	Charge				
@<TRIPOS>ATOM								
1	C1	-2.0950	0.8300	-2.8480	c3	1	MOL	-0.0574796410713743
2	C2	-1.6810	0.5480	-1.4020	c3	1	MOL	0.0502276851611604
3	C3	-1.1170	-0.8730	-1.1970	c3	1	MOL	0.029434866161889
4	C4	0.3840	-0.9220	-0.9130	c3	1	MOL	-0.1367489029942565
5	N1	0.7410	-0.3030	0.3540	na	1	MOL	0.3986932518358891
6	N2	0.3320	-0.8330	1.4880	nc	1	MOL	-0.2502196049522864
7	N3	0.7750	-0.1290	2.4490	nd	1	MOL	-0.3193359951280445
8	C5	1.4970	0.8950	1.9470	cd	1	MOL	0.1155272094562996
9	C6	1.4820	0.7910	0.5930	cc	1	MOL	-0.3665531218424377
10	H1	-2.4730	1.8410	-2.9580	hc	1	MOL	0.0130890605865177
11	H2	-2.8760	0.1470	-3.1690	hc	1	MOL	0.0130890605865177
12	H3	-1.2570	0.7150	-3.5310	hc	1	MOL	0.0130890605865177
13	H4	-0.9540	1.2890	-1.0830	hc	1	MOL	-0.0014480429946745
14	H5	-2.5430	0.6900	-0.7590	hc	1	MOL	-0.0014480429946745
15	H6	-1.6230	-1.3700	-0.3780	hc	1	MOL	0.013903235081947
16	H7	-1.2960	-1.4790	-2.0820	hc	1	MOL	0.013903235081947
17	H8	0.7280	-1.9480	-0.8840	h1	1	MOL	0.0718422229084886
18	H9	0.9430	-0.4050	-1.6830	h1	1	MOL	0.0718422229084886
19	H10	1.9680	1.6180	2.5770	h4	1	MOL	0.1170117401835705
20	H11	1.9210	1.3750	-0.1870	h4	1	MOL	0.2115805014385151
@<TRIPOS>BOND								
1	1	2	1					
2	1	10	1					
3	1	11	1					
4	1	12	1					
5	2	3	1					
6	2	13	1					
7	2	14	1					
8	3	4	1					
9	3	15	1					
10	3	16	1					
11	4	5	1					
12	4	17	1					
13	4	18	1					
14	5	6	1					
15	5	9	1					
16	6	7	2					
17	7	8	1					
18	8	9	2					
19	8	19	1					
20	9	20	1					
@<TRIPOS>SUBSTRUCTURE								
1	MOL	1	TEMP	0	****	****	0	ROOT
