@<TRIPOS>MOLECULE
MOL
   20    22     1     0     0
SMALL
No Charge or Current Charge


@<TRIPOS>ATOM
      1 C1          -1.9790     0.7590    -1.2330 c3         1 MOL       0.000000
      2 C2          -2.2250    -0.7450    -1.0940 c3         1 MOL       0.000000
      3 C3          -1.5470    -1.4310     0.0990 c3         1 MOL       0.000000
      4 C4          -0.0250    -1.5680     0.0430 c3         1 MOL       0.000000
      5 N1           0.7020    -0.3200     0.2250 n3         1 MOL       0.000000
      6 N2           0.5010     0.4200     1.2950 n3         1 MOL       0.000000
      7 N3           1.2760     1.4250     1.2450 n3         1 MOL       0.000000
      8 C5           2.0180     1.3530     0.1190 c3         1 MOL       0.000000
      9 C6           1.6570     0.2240    -0.5460 c3         1 MOL       0.000000
     10 H1          -2.6030     1.1670    -2.0230 hc         1 MOL       0.000000
     11 H2          -0.9500     0.9900    -1.4770 hc         1 MOL       0.000000
     12 H3          -2.2230     1.2820    -0.3130 hc         1 MOL       0.000000
     13 H4          -3.2940    -0.9110    -0.9940 hc         1 MOL       0.000000
     14 H5          -1.9300    -1.2490    -2.0130 hc         1 MOL       0.000000
     15 H6          -1.8160    -0.9280     1.0220 hc         1 MOL       0.000000
     16 H7          -1.9340    -2.4440     0.1740 hc         1 MOL       0.000000
     17 H8           0.3030    -2.2530     0.8140 h1         1 MOL       0.000000
     18 H9           0.2880    -1.9720    -0.9120 h1         1 MOL       0.000000
     19 H10          2.7430     2.0970    -0.1310 h1         1 MOL       0.000000
     20 H11          1.9830    -0.2170    -1.4620 h1         1 MOL       0.000000
@<TRIPOS>BOND
     1     1     2 1   
     2     1    10 1   
     3     1    11 1   
     4     1    12 1   
     5     2     3 1   
     6     2    13 1   
     7     2    14 1   
     8     3     4 1   
     9     3    15 1   
    10     3    16 1   
    11     4     5 1   
    12     4    17 1   
    13     4    18 1   
    14     5     6 1   
    15     5     9 1   
    16     6     7 1   
    17     6     7 1   
    18     7     8 1   
    19     8     9 1   
    20     8     9 1   
    21     8    19 1   
    22     9    20 1   
@<TRIPOS>SUBSTRUCTURE
     1 MOL         1 TEMP              0 ****  ****    0 ROOT
