@<TRIPOS>MOLECULE								
MOL								
20	20	1	0	0				
SMALL								
No	Charge	or	Current	Charge				
@<TRIPOS>ATOM								
1	C1	-2.1380	0.9580	-2.8670	c3	1	MOL	-0.0574796410713743
2	C2	-1.4410	0.6970	-1.5310	c3	1	MOL	0.0502276851611604
3	C3	-0.9470	-0.7570	-1.3800	c3	1	MOL	0.029434866161889
4	C4	0.5080	-0.8860	-0.9360	c3	1	MOL	-0.1367489029942565
5	N1	0.7460	-0.3410	0.3930	na	1	MOL	0.3986932518358891
6	N2	0.2210	-0.9260	1.4490	nc	1	MOL	-0.2502196049522864
7	N3	0.5600	-0.2740	2.4850	nd	1	MOL	-0.3193359951280445
8	C5	1.3310	0.7700	2.1150	cd	1	MOL	0.1155272094562996
9	C6	1.4580	0.7350	0.7620	cc	1	MOL	-0.3665531218424377
10	H1	-2.4790	1.9850	-2.9360	hc	1	MOL	0.0130890605865177
11	H2	-3.0030	0.3130	-2.9920	hc	1	MOL	0.0130890605865177
12	H3	-1.4650	0.7730	-3.6990	hc	1	MOL	0.0130890605865177
13	H4	-0.6020	1.3830	-1.4430	hc	1	MOL	-0.0014480429946745
14	H5	-2.1100	0.9460	-0.7130	hc	1	MOL	-0.0014480429946745
15	H6	-1.5710	-1.3050	-0.6850	hc	1	MOL	0.013903235081947
16	H7	-1.0230	-1.2720	-2.3350	hc	1	MOL	0.013903235081947
17	H8	0.8080	-1.9250	-0.9210	h1	1	MOL	0.0718422229084886
18	H9	1.1650	-0.3570	-1.6150	h1	1	MOL	0.0718422229084886
19	H10	1.7340	1.4580	2.8260	h4	1	MOL	0.1170117401835705
20	H11	1.9760	1.3550	0.0640	h4	1	MOL	0.2115805014385151
@<TRIPOS>BOND								
1	1	2	1					
2	1	10	1					
3	1	11	1					
4	1	12	1					
5	2	3	1					
6	2	13	1					
7	2	14	1					
8	3	4	1					
9	3	15	1					
10	3	16	1					
11	4	5	1					
12	4	17	1					
13	4	18	1					
14	5	6	1					
15	5	9	1					
16	6	7	2					
17	7	8	1					
18	8	9	2					
19	8	19	1					
20	9	20	1					
@<TRIPOS>SUBSTRUCTURE								
1	MOL	1	TEMP	0	****	****	0	ROOT
