@<TRIPOS>MOLECULE
MOL
   20    22     1     0     0
SMALL
No Charge or Current Charge


@<TRIPOS>ATOM
      1 C1          -2.0290     0.8220    -1.1470 c3         1 MOL       0.000000
      2 C2          -2.1620    -0.7020    -1.0960 c3         1 MOL       0.000000
      3 C3          -1.5950    -1.3750     0.1630 c3         1 MOL       0.000000
      4 C4          -0.0810    -1.5850     0.1990 c3         1 MOL       0.000000
      5 N1           0.6960    -0.3570     0.2590 n3         1 MOL       0.000000
      6 N2           0.5570     0.4690     1.2740 n3         1 MOL       0.000000
      7 N3           1.3480     1.4510     1.1120 n3         1 MOL       0.000000
      8 C5           2.0330     1.2760    -0.0390 c3         1 MOL       0.000000
      9 C6           1.6210     0.1070    -0.5960 c3         1 MOL       0.000000
     10 H1          -2.5340     1.2130    -2.0250 hc         1 MOL       0.000000
     11 H2          -0.9980     1.1500    -1.1870 hc         1 MOL       0.000000
     12 H3          -2.4840     1.2780    -0.2730 hc         1 MOL       0.000000
     13 H4          -3.2180    -0.9520    -1.1540 hc         1 MOL       0.000000
     14 H5          -1.7040    -1.1430    -1.9800 hc         1 MOL       0.000000
     15 H6          -1.8950    -0.8240     1.0490 hc         1 MOL       0.000000
     16 H7          -2.0310    -2.3670     0.2530 hc         1 MOL       0.000000
     17 H8           0.1820    -2.1820     1.0620 h1         1 MOL       0.000000
     18 H9           0.2490    -2.1170    -0.6850 h1         1 MOL       0.000000
     19 H10          2.7600     1.9820    -0.3780 h1         1 MOL       0.000000
     20 H11          1.8940    -0.4100    -1.4890 h1         1 MOL       0.000000
@<TRIPOS>BOND
     1     1     2 1   
     2     1    10 1   
     3     1    11 1   
     4     1    12 1   
     5     2     3 1   
     6     2    13 1   
     7     2    14 1   
     8     3     4 1   
     9     3    15 1   
    10     3    16 1   
    11     4     5 1   
    12     4    17 1   
    13     4    18 1   
    14     5     6 1   
    15     5     9 1   
    16     6     7 1   
    17     6     7 1   
    18     7     8 1   
    19     8     9 1   
    20     8     9 1   
    21     8    19 1   
    22     9    20 1   
@<TRIPOS>SUBSTRUCTURE
     1 MOL         1 TEMP              0 ****  ****    0 ROOT
